/*---------------------------------------------------------------------------*\
  =========                 |
  \\      /  F ield         | OpenFOAM: The Open Source CFD Toolbox
   \\    /   O peration     | Website:  https://openfoam.org
    \\  /    A nd           | Version:  6
     \\/     M anipulation  |
\*---------------------------------------------------------------------------*/
Build  : 6-fa1285188035
Exec   : interFoam
Date   : Dec 21 2024
Time   : 13:00:52
Host   : "Maverick"
PID    : 1753
I/O    : uncollated
Case   : /home/maverick/OpenFOAM/maverick-6/run/damBreak
nProcs : 1
sigFpe : Enabling floating point exception trapping (FOAM_SIGFPE).
fileModificationChecking : Monitoring run-time modified files using timeStampMaster (fileModificationSkew 10)
allowSystemOperations : Allowing user-supplied system call operations

// * * * * * * * * * * * * * * * * * * * * * * * * * * * * * * * * * * * * * //
Create time

Create mesh for time = 0


PIMPLE: No convergence criteria found


PIMPLE: Operating solver in PISO mode

Reading field p_rgh

Reading field U

Reading/calculating face flux field phi

Reading transportProperties

Selecting incompressible transport model Newtonian
Selecting incompressible transport model Newtonian
Selecting turbulence model type laminar
Selecting laminar stress model Stokes

Reading g

Reading hRef
Calculating field g.h

No MRF models present

No finite volume options present
DICPCG:  Solving for pcorr, Initial residual = 0, Final residual = 0, No Iterations 0
time step continuity errors : sum local = 0, global = 0, cumulative = 0
Courant Number mean: 0 max: 0

Starting time loop

Courant Number mean: 0 max: 0
Interface Courant Number mean: 0 max: 0
deltaT = 0.00119048
Time = 0.00119048

smoothSolver:  Solving for alpha.water, Initial residual = 0, Final residual = 0, No Iterations 0
Phase-1 volume fraction = 0.130194  Min(alpha.water) = 0  Max(alpha.water) = 1
MULES: Correcting alpha.water
MULES: Correcting alpha.water
Phase-1 volume fraction = 0.130194  Min(alpha.water) = 0  Max(alpha.water) = 1
DICPCG:  Solving for p_rgh, Initial residual = 1, Final residual = 0.00312169, No Iterations 1
time step continuity errors : sum local = 0.000863663, global = -1.26728e-12, cumulative = -1.26728e-12
DICPCG:  Solving for p_rgh, Initial residual = 0.00146342, Final residual = 6.18289e-05, No Iterations 13
time step continuity errors : sum local = 3.6494e-05, global = -1.00159e-05, cumulative = -1.00159e-05
DICPCG:  Solving for p_rgh, Initial residual = 5.08541e-05, Final residual = 8.19126e-08, No Iterations 48
time step continuity errors : sum local = 5.88485e-08, global = 1.01685e-08, cumulative = -1.00057e-05
ExecutionTime = 0.07 s  ClockTime = 0 s

Courant Number mean: 0.00124881 max: 0.107249
Interface Courant Number mean: 0 max: 0
deltaT = 0.00139456
Time = 0.00258503

smoothSolver:  Solving for alpha.water, Initial residual = 0.000282089, Final residual = 1.76373e-12, No Iterations 2
Phase-1 volume fraction = 0.130194  Min(alpha.water) = 0  Max(alpha.water) = 1
MULES: Correcting alpha.water
MULES: Correcting alpha.water
Phase-1 volume fraction = 0.130194  Min(alpha.water) = -3.70544e-13  Max(alpha.water) = 1
DICPCG:  Solving for p_rgh, Initial residual = 0.00309451, Final residual = 9.57881e-05, No Iterations 2
time step continuity errors : sum local = 8.10226e-05, global = 2.83727e-08, cumulative = -9.97731e-06
DICPCG:  Solving for p_rgh, Initial residual = 0.000206042, Final residual = 9.68363e-06, No Iterations 34
time step continuity errors : sum local = 8.19486e-06, global = 1.18476e-07, cumulative = -9.85884e-06
DICPCG:  Solving for p_rgh, Initial residual = 2.99415e-05, Final residual = 9.94375e-08, No Iterations 43
time step continuity errors : sum local = 8.41037e-08, global = 5.8891e-09, cumulative = -9.85295e-06
ExecutionTime = 0.08 s  ClockTime = 0 s

Courant Number mean: 0.00202286 max: 0.0756112
Interface Courant Number mean: 7.08904e-05 max: 0.0756112
deltaT = 0.001635
Time = 0.00422003

smoothSolver:  Solving for alpha.water, Initial residual = 0.000230673, Final residual = 3.31409e-12, No Iterations 2
Phase-1 volume fraction = 0.130194  Min(alpha.water) = 0  Max(alpha.water) = 1
MULES: Correcting alpha.water
MULES: Correcting alpha.water
Phase-1 volume fraction = 0.130194  Min(alpha.water) = -6.69248e-12  Max(alpha.water) = 1
DICPCG:  Solving for p_rgh, Initial residual = 0.00292902, Final residual = 5.72653e-05, No Iterations 2
time step continuity errors : sum local = 5.96402e-05, global = 1.25287e-09, cumulative = -9.8517e-06
DICPCG:  Solving for p_rgh, Initial residual = 6.26495e-05, Final residual = 2.92541e-06, No Iterations 32
time step continuity errors : sum local = 3.04515e-06, global = -4.0332e-07, cumulative = -1.0255e-05
DICPCG:  Solving for p_rgh, Initial residual = 4.06591e-06, Final residual = 8.033e-08, No Iterations 36
time step continuity errors : sum local = 8.36413e-08, global = -1.42193e-09, cumulative = -1.02564e-05
ExecutionTime = 0.09 s  ClockTime = 0 s

Courant Number mean: 0.00345628 max: 0.0785154
Interface Courant Number mean: 7.96026e-05 max: 0.0785154
deltaT = 0.0019075
Time = 0.00612753

smoothSolver:  Solving for alpha.water, Initial residual = 0.000299161, Final residual = 5.85954e-12, No Iterations 2
Phase-1 volume fraction = 0.130194  Min(alpha.water) = 0  Max(alpha.water) = 1
MULES: Correcting alpha.water
MULES: Correcting alpha.water
Phase-1 volume fraction = 0.130194  Min(alpha.water) = -2.19138e-10  Max(alpha.water) = 1
DICPCG:  Solving for p_rgh, Initial residual = 0.00391163, Final residual = 5.85327e-05, No Iterations 2
time step continuity errors : sum local = 7.58651e-05, global = -6.17669e-09, cumulative = -1.02626e-05
DICPCG:  Solving for p_rgh, Initial residual = 6.14745e-05, Final residual = 2.93083e-06, No Iterations 14
time step continuity errors : sum local = 3.79312e-06, global = -5.78639e-07, cumulative = -1.08413e-05
DICPCG:  Solving for p_rgh, Initial residual = 3.55175e-06, Final residual = 9.69448e-08, No Iterations 33
time step continuity errors : sum local = 1.25505e-07, global = 1.30904e-08, cumulative = -1.08282e-05
ExecutionTime = 0.1 s  ClockTime = 0 s

Courant Number mean: 0.00555548 max: 0.0871946
Interface Courant Number mean: 0.000212287 max: 0.0871946
deltaT = 0.00219362
Time = 0.00832115

smoothSolver:  Solving for alpha.water, Initial residual = 0.000399527, Final residual = 8.72141e-12, No Iterations 2
Phase-1 volume fraction = 0.130194  Min(alpha.water) = 0  Max(alpha.water) = 1
MULES: Correcting alpha.water
MULES: Correcting alpha.water
Phase-1 volume fraction = 0.130194  Min(alpha.water) = -2.51693e-09  Max(alpha.water) = 1
DICPCG:  Solving for p_rgh, Initial residual = 0.00537419, Final residual = 0.000209077, No Iterations 1
time step continuity errors : sum local = 0.000336376, global = 4.6965e-08, cumulative = -1.07812e-05
DICPCG:  Solving for p_rgh, Initial residual = 0.000212202, Final residual = 8.7248e-06, No Iterations 9
time step continuity errors : sum local = 1.39993e-05, global = -2.83784e-07, cumulative = -1.1065e-05
DICPCG:  Solving for p_rgh, Initial residual = 1.01858e-05, Final residual = 7.11254e-08, No Iterations 40
time step continuity errors : sum local = 1.14147e-07, global = 1.072e-08, cumulative = -1.10543e-05
ExecutionTime = 0.11 s  ClockTime = 0 s

Courant Number mean: 0.00841635 max: 0.09761
Interface Courant Number mean: 0.000351324 max: 0.09761
deltaT = 0.00260493
Time = 0.0109261

smoothSolver:  Solving for alpha.water, Initial residual = 0.000559471, Final residual = 1.82747e-11, No Iterations 2
Phase-1 volume fraction = 0.130194  Min(alpha.water) = 0  Max(alpha.water) = 1
MULES: Correcting alpha.water
MULES: Correcting alpha.water
Phase-1 volume fraction = 0.130194  Min(alpha.water) = -2.03393e-08  Max(alpha.water) = 1
DICPCG:  Solving for p_rgh, Initial residual = 0.00775932, Final residual = 0.00021502, No Iterations 1
time step continuity errors : sum local = 0.00046518, global = 2.81077e-08, cumulative = -1.10262e-05
DICPCG:  Solving for p_rgh, Initial residual = 0.000217985, Final residual = 1.02465e-05, No Iterations 9
time step continuity errors : sum local = 2.20705e-05, global = -3.28194e-07, cumulative = -1.13543e-05
DICPCG:  Solving for p_rgh, Initial residual = 1.27728e-05, Final residual = 8.13908e-08, No Iterations 40
time step continuity errors : sum local = 1.75385e-07, global = 3.40796e-09, cumulative = -1.13509e-05
ExecutionTime = 0.12 s  ClockTime = 0 s

Courant Number mean: 0.0128526 max: 0.114966
Interface Courant Number mean: 0.000555323 max: 0.114726
deltaT = 0.00300569
Time = 0.0139318

smoothSolver:  Solving for alpha.water, Initial residual = 0.000768907, Final residual = 4.3622e-11, No Iterations 2
Phase-1 volume fraction = 0.130194  Min(alpha.water) = 0  Max(alpha.water) = 1
MULES: Correcting alpha.water
MULES: Correcting alpha.water
Phase-1 volume fraction = 0.130194  Min(alpha.water) = -1.28159e-07  Max(alpha.water) = 1
DICPCG:  Solving for p_rgh, Initial residual = 0.0110222, Final residual = 0.000209814, No Iterations 1
time step continuity errors : sum local = 0.000581393, global = 3.45395e-08, cumulative = -1.13164e-05
DICPCG:  Solving for p_rgh, Initial residual = 0.000213763, Final residual = 9.82908e-06, No Iterations 10
time step continuity errors : sum local = 2.70475e-05, global = -2.31318e-07, cumulative = -1.15477e-05
DICPCG:  Solving for p_rgh, Initial residual = 1.36763e-05, Final residual = 9.16882e-08, No Iterations 37
time step continuity errors : sum local = 2.5252e-07, global = 2.24464e-08, cumulative = -1.15253e-05
ExecutionTime = 0.13 s  ClockTime = 0 s

Courant Number mean: 0.0186261 max: 0.170198
Interface Courant Number mean: 0.000877221 max: 0.144957
deltaT = 0.00360682
Time = 0.0175386

smoothSolver:  Solving for alpha.water, Initial residual = 0.00110165, Final residual = 1.52298e-10, No Iterations 2
Phase-1 volume fraction = 0.130194  Min(alpha.water) = 0  Max(alpha.water) = 1
MULES: Correcting alpha.water
MULES: Correcting alpha.water
Phase-1 volume fraction = 0.130194  Min(alpha.water) = -9.52169e-07  Max(alpha.water) = 1
DICPCG:  Solving for p_rgh, Initial residual = 0.016297, Final residual = 0.000234801, No Iterations 1
time step continuity errors : sum local = 0.000899077, global = 1.38262e-07, cumulative = -1.1387e-05
DICPCG:  Solving for p_rgh, Initial residual = 0.000240731, Final residual = 1.1492e-05, No Iterations 10
time step continuity errors : sum local = 4.3535e-05, global = 8.31183e-07, cumulative = -1.05558e-05
DICPCG:  Solving for p_rgh, Initial residual = 1.83988e-05, Final residual = 7.69688e-08, No Iterations 37
time step continuity errors : sum local = 2.91964e-07, global = 1.28247e-08, cumulative = -1.0543e-05
ExecutionTime = 0.14 s  ClockTime = 0 s

Courant Number mean: 0.0277838 max: 0.24368
Interface Courant Number mean: 0.00140088 max: 0.211818
deltaT = 0.00405768
Time = 0.0215963

smoothSolver:  Solving for alpha.water, Initial residual = 0.00147898, Final residual = 4.04306e-10, No Iterations 2
Phase-1 volume fraction = 0.130194  Min(alpha.water) = 0  Max(alpha.water) = 1
MULES: Correcting alpha.water
MULES: Correcting alpha.water
Phase-1 volume fraction = 0.130194  Min(alpha.water) = -1.3966e-07  Max(alpha.water) = 1
DICPCG:  Solving for p_rgh, Initial residual = 0.0226309, Final residual = 0.000265381, No Iterations 1
time step continuity errors : sum local = 0.00123091, global = 1.33531e-07, cumulative = -1.04095e-05
DICPCG:  Solving for p_rgh, Initial residual = 0.000273503, Final residual = 1.34008e-05, No Iterations 10
time step continuity errors : sum local = 6.12094e-05, global = 2.93081e-06, cumulative = -7.47866e-06
DICPCG:  Solving for p_rgh, Initial residual = 2.43093e-05, Final residual = 8.04675e-08, No Iterations 38
time step continuity errors : sum local = 3.68277e-07, global = -2.11319e-08, cumulative = -7.49979e-06
ExecutionTime = 0.15 s  ClockTime = 0 s

Courant Number mean: 0.0380051 max: 0.279692
Interface Courant Number mean: 0.00189875 max: 0.277263
deltaT = 0.00473396
Time = 0.0263302

smoothSolver:  Solving for alpha.water, Initial residual = 0.00203594, Final residual = 1.12515e-09, No Iterations 2
Phase-1 volume fraction = 0.130194  Min(alpha.water) = 0  Max(alpha.water) = 1
MULES: Correcting alpha.water
MULES: Correcting alpha.water
Phase-1 volume fraction = 0.130194  Min(alpha.water) = -1.15134e-06  Max(alpha.water) = 1
DICPCG:  Solving for p_rgh, Initial residual = 0.0321125, Final residual = 0.000328003, No Iterations 1
time step continuity errors : sum local = 0.00195666, global = 1.66995e-07, cumulative = -7.3328e-06
DICPCG:  Solving for p_rgh, Initial residual = 0.000347009, Final residual = 1.63095e-05, No Iterations 11
time step continuity errors : sum local = 9.52001e-05, global = 7.89874e-06, cumulative = 5.65942e-07
DICPCG:  Solving for p_rgh, Initial residual = 3.77262e-05, Final residual = 8.87084e-08, No Iterations 27
time step continuity errors : sum local = 5.19557e-07, global = -2.20978e-07, cumulative = 3.44964e-07
ExecutionTime = 0.16 s  ClockTime = 0 s

Courant Number mean: 0.0534189 max: 0.415355
Interface Courant Number mean: 0.00269214 max: 0.373524
deltaT = 0.00473396
Time = 0.0310642

smoothSolver:  Solving for alpha.water, Initial residual = 0.00239151, Final residual = 1.98355e-13, No Iterations 3
Phase-1 volume fraction = 0.130194  Min(alpha.water) = 0  Max(alpha.water) = 1
MULES: Correcting alpha.water
MULES: Correcting alpha.water
Phase-1 volume fraction = 0.130194  Min(alpha.water) = -1.69809e-06  Max(alpha.water) = 1
DICPCG:  Solving for p_rgh, Initial residual = 0.0396296, Final residual = 0.000377947, No Iterations 1
time step continuity errors : sum local = 0.00212984, global = -2.16165e-07, cumulative = 1.28799e-07
DICPCG:  Solving for p_rgh, Initial residual = 0.000401769, Final residual = 1.3062e-05, No Iterations 12
time step continuity errors : sum local = 7.16643e-05, global = 6.8495e-06, cumulative = 6.9783e-06
DICPCG:  Solving for p_rgh, Initial residual = 4.16705e-05, Final residual = 8.06807e-08, No Iterations 41
time step continuity errors : sum local = 4.44765e-07, global = -5.64028e-08, cumulative = 6.9219e-06
ExecutionTime = 0.17 s  ClockTime = 0 s

Courant Number mean: 0.0624529 max: 0.472581
Interface Courant Number mean: 0.00327354 max: 0.424959
deltaT = 0.00473396
Time = 0.0357981

smoothSolver:  Solving for alpha.water, Initial residual = 0.00277598, Final residual = 4.61578e-13, No Iterations 3
Phase-1 volume fraction = 0.130194  Min(alpha.water) = 0  Max(alpha.water) = 1
MULES: Correcting alpha.water
MULES: Correcting alpha.water
Phase-1 volume fraction = 0.130194  Min(alpha.water) = -3.32699e-06  Max(alpha.water) = 1
DICPCG:  Solving for p_rgh, Initial residual = 0.0467598, Final residual = 0.000316529, No Iterations 1
time step continuity errors : sum local = 0.00167627, global = 2.98204e-07, cumulative = 7.2201e-06
DICPCG:  Solving for p_rgh, Initial residual = 0.000348505, Final residual = 1.71908e-05, No Iterations 11
time step continuity errors : sum local = 8.80015e-05, global = 5.77809e-06, cumulative = 1.29982e-05
DICPCG:  Solving for p_rgh, Initial residual = 4.32219e-05, Final residual = 9.50182e-08, No Iterations 44
time step continuity errors : sum local = 4.89234e-07, global = -3.02342e-08, cumulative = 1.2968e-05
ExecutionTime = 0.18 s  ClockTime = 0 s

Courant Number mean: 0.0714517 max: 0.526793
Interface Courant Number mean: 0.00389684 max: 0.501006
deltaT = 0.00473396
Time = 0.0405321

smoothSolver:  Solving for alpha.water, Initial residual = 0.0031423, Final residual = 1.53515e-10, No Iterations 3
Phase-1 volume fraction = 0.130194  Min(alpha.water) = 0  Max(alpha.water) = 1
MULES: Correcting alpha.water
MULES: Correcting alpha.water
Phase-1 volume fraction = 0.130194  Min(alpha.water) = -1.33464e-06  Max(alpha.water) = 1
DICPCG:  Solving for p_rgh, Initial residual = 0.0525111, Final residual = 0.000376537, No Iterations 1
time step continuity errors : sum local = 0.00183035, global = 2.24278e-07, cumulative = 1.31922e-05
DICPCG:  Solving for p_rgh, Initial residual = 0.000424374, Final residual = 1.97051e-05, No Iterations 10
time step continuity errors : sum local = 9.20793e-05, global = 9.92386e-06, cumulative = 2.31161e-05
DICPCG:  Solving for p_rgh, Initial residual = 5.47748e-05, Final residual = 9.04451e-08, No Iterations 43
time step continuity errors : sum local = 4.25854e-07, global = -2.5565e-08, cumulative = 2.30905e-05
ExecutionTime = 0.19 s  ClockTime = 0 s

Courant Number mean: 0.0800864 max: 0.582465
Interface Courant Number mean: 0.00514963 max: 0.538959
deltaT = 0.00473396
Time = 0.045266

smoothSolver:  Solving for alpha.water, Initial residual = 0.00348221, Final residual = 2.94021e-09, No Iterations 3
Phase-1 volume fraction = 0.130194  Min(alpha.water) = 0  Max(alpha.water) = 1
MULES: Correcting alpha.water
MULES: Correcting alpha.water
Phase-1 volume fraction = 0.130194  Min(alpha.water) = -5.54098e-06  Max(alpha.water) = 1
DICPCG:  Solving for p_rgh, Initial residual = 0.0556679, Final residual = 0.000450589, No Iterations 1
time step continuity errors : sum local = 0.00200034, global = 8.96823e-08, cumulative = 2.31802e-05
DICPCG:  Solving for p_rgh, Initial residual = 0.000508616, Final residual = 2.28029e-05, No Iterations 10
time step continuity errors : sum local = 9.70235e-05, global = 1.28136e-05, cumulative = 3.59938e-05
DICPCG:  Solving for p_rgh, Initial residual = 6.91451e-05, Final residual = 8.44459e-08, No Iterations 46
time step continuity errors : sum local = 3.62867e-07, global = 2.586e-08, cumulative = 3.60196e-05
ExecutionTime = 0.2 s  ClockTime = 0 s

Courant Number mean: 0.0885246 max: 0.61892
Interface Courant Number mean: 0.00629367 max: 0.581248
deltaT = 0.00473396
Time = 0.05

smoothSolver:  Solving for alpha.water, Initial residual = 0.00383056, Final residual = 5.24527e-09, No Iterations 3
Phase-1 volume fraction = 0.130194  Min(alpha.water) = 0  Max(alpha.water) = 1
MULES: Correcting alpha.water
MULES: Correcting alpha.water
Phase-1 volume fraction = 0.130194  Min(alpha.water) = -2.55483e-06  Max(alpha.water) = 1
DICPCG:  Solving for p_rgh, Initial residual = 0.0558184, Final residual = 0.000562269, No Iterations 1
time step continuity errors : sum local = 0.00227154, global = 1.44601e-07, cumulative = 3.61642e-05
DICPCG:  Solving for p_rgh, Initial residual = 0.000634753, Final residual = 2.81596e-05, No Iterations 10
time step continuity errors : sum local = 0.000108942, global = 1.73604e-05, cumulative = 5.35246e-05
DICPCG:  Solving for p_rgh, Initial residual = 8.87628e-05, Final residual = 7.73363e-08, No Iterations 49
time step continuity errors : sum local = 3.02912e-07, global = -6.53999e-09, cumulative = 5.35181e-05
ExecutionTime = 0.22 s  ClockTime = 0 s

Courant Number mean: 0.0969991 max: 0.66385
Interface Courant Number mean: 0.00734666 max: 0.618689
deltaT = 0.005
Time = 0.055

smoothSolver:  Solving for alpha.water, Initial residual = 0.00442061, Final residual = 9.90195e-11, No Iterations 4
Phase-1 volume fraction = 0.130194  Min(alpha.water) = 0  Max(alpha.water) = 1
MULES: Correcting alpha.water
MULES: Correcting alpha.water
Phase-1 volume fraction = 0.130194  Min(alpha.water) = -1.25369e-05  Max(alpha.water) = 1
DICPCG:  Solving for p_rgh, Initial residual = 0.0545018, Final residual = 0.000802465, No Iterations 1
time step continuity errors : sum local = 0.00327808, global = 1.73145e-08, cumulative = 5.35354e-05
DICPCG:  Solving for p_rgh, Initial residual = 0.000906079, Final residual = 4.23612e-05, No Iterations 10
time step continuity errors : sum local = 0.000165975, global = 2.77871e-05, cumulative = 8.13225e-05
DICPCG:  Solving for p_rgh, Initial residual = 0.000132044, Final residual = 8.66561e-08, No Iterations 47
time step continuity errors : sum local = 3.44923e-07, global = 2.94441e-08, cumulative = 8.13519e-05
ExecutionTime = 0.23 s  ClockTime = 0 s

Courant Number mean: 0.111863 max: 0.744634
Interface Courant Number mean: 0.00856398 max: 0.698392
deltaT = 0.005625
Time = 0.060625

smoothSolver:  Solving for alpha.water, Initial residual = 0.0054285, Final residual = 3.19426e-10, No Iterations 4
Phase-1 volume fraction = 0.130194  Min(alpha.water) = 0  Max(alpha.water) = 1
MULES: Correcting alpha.water
MULES: Correcting alpha.water
Phase-1 volume fraction = 0.130194  Min(alpha.water) = -1.42609e-05  Max(alpha.water) = 1
DICPCG:  Solving for p_rgh, Initial residual = 0.0543731, Final residual = 0.00112963, No Iterations 1
time step continuity errors : sum local = 0.00534912, global = 6.54793e-08, cumulative = 8.14174e-05
DICPCG:  Solving for p_rgh, Initial residual = 0.00127491, Final residual = 5.27651e-05, No Iterations 11
time step continuity errors : sum local = 0.000239595, global = 4.82367e-05, cumulative = 0.000129654
DICPCG:  Solving for p_rgh, Initial residual = 0.000183921, Final residual = 8.20807e-08, No Iterations 50
time step continuity errors : sum local = 3.80683e-07, global = -2.44204e-08, cumulative = 0.00012963
ExecutionTime = 0.24 s  ClockTime = 0 s

Courant Number mean: 0.137713 max: 0.898764
Interface Courant Number mean: 0.0114284 max: 0.838077
deltaT = 0.005625
Time = 0.06625

smoothSolver:  Solving for alpha.water, Initial residual = 0.00585824, Final residual = 1.93006e-09, No Iterations 4
Phase-1 volume fraction = 0.130194  Min(alpha.water) = 0  Max(alpha.water) = 1
MULES: Correcting alpha.water
MULES: Correcting alpha.water
Phase-1 volume fraction = 0.130194  Min(alpha.water) = -4.54534e-05  Max(alpha.water) = 1
DICPCG:  Solving for p_rgh, Initial residual = 0.0436854, Final residual = 0.00136574, No Iterations 1
time step continuity errors : sum local = 0.00615927, global = -4.32358e-07, cumulative = 0.000129197
DICPCG:  Solving for p_rgh, Initial residual = 0.00154146, Final residual = 7.28096e-05, No Iterations 10
time step continuity errors : sum local = 0.000318738, global = 6.21365e-05, cumulative = 0.000191334
DICPCG:  Solving for p_rgh, Initial residual = 0.000230916, Final residual = 8.77252e-08, No Iterations 50
time step continuity errors : sum local = 3.93178e-07, global = -3.31328e-08, cumulative = 0.000191301
ExecutionTime = 0.25 s  ClockTime = 0 s

Courant Number mean: 0.149199 max: 0.962596
Interface Courant Number mean: 0.0129985 max: 0.900279
deltaT = 0.005625
Time = 0.071875

smoothSolver:  Solving for alpha.water, Initial residual = 0.0062838, Final residual = 3.58275e-09, No Iterations 4
Phase-1 volume fraction = 0.130194  Min(alpha.water) = 0  Max(alpha.water) = 1
MULES: Correcting alpha.water
MULES: Correcting alpha.water
Phase-1 volume fraction = 0.130194  Min(alpha.water) = -3.89113e-05  Max(alpha.water) = 1
DICPCG:  Solving for p_rgh, Initial residual = 0.0413384, Final residual = 0.00110648, No Iterations 1
time step continuity errors : sum local = 0.0052784, global = -8.85363e-07, cumulative = 0.000190415
DICPCG:  Solving for p_rgh, Initial residual = 0.00127596, Final residual = 6.15996e-05, No Iterations 11
time step continuity errors : sum local = 0.000285115, global = 5.98183e-05, cumulative = 0.000250234
DICPCG:  Solving for p_rgh, Initial residual = 0.000203826, Final residual = 9.24049e-08, No Iterations 50
time step continuity errors : sum local = 4.37987e-07, global = -4.14868e-08, cumulative = 0.000250192
ExecutionTime = 0.26 s  ClockTime = 0 s

Courant Number mean: 0.160282 max: 1.18223
Interface Courant Number mean: 0.0145706 max: 0.974235
deltaT = 0.0046875
Time = 0.0765625

smoothSolver:  Solving for alpha.water, Initial residual = 0.00560761, Final residual = 1.93801e-09, No Iterations 4
Phase-1 volume fraction = 0.130194  Min(alpha.water) = -9.19791e-16  Max(alpha.water) = 1
MULES: Correcting alpha.water
MULES: Correcting alpha.water
Phase-1 volume fraction = 0.130194  Min(alpha.water) = -2.96125e-05  Max(alpha.water) = 1
DICPCG:  Solving for p_rgh, Initial residual = 0.0651516, Final residual = 0.000748723, No Iterations 1
time step continuity errors : sum local = 0.00291864, global = -7.69739e-07, cumulative = 0.000249422
DICPCG:  Solving for p_rgh, Initial residual = 0.000873223, Final residual = 3.87496e-05, No Iterations 11
time step continuity errors : sum local = 0.000142112, global = 2.67145e-05, cumulative = 0.000276137
DICPCG:  Solving for p_rgh, Initial residual = 0.000134055, Final residual = 9.55024e-08, No Iterations 49
time step continuity errors : sum local = 3.57212e-07, global = -8.60872e-09, cumulative = 0.000276128
ExecutionTime = 0.27 s  ClockTime = 0 s

Courant Number mean: 0.141013 max: 1.16249
Interface Courant Number mean: 0.0131162 max: 0.827566
deltaT = 0.00390625
Time = 0.0804688

smoothSolver:  Solving for alpha.water, Initial residual = 0.00494863, Final residual = 6.78127e-10, No Iterations 4
Phase-1 volume fraction = 0.130194  Min(alpha.water) = -3.71861e-16  Max(alpha.water) = 1
MULES: Correcting alpha.water
MULES: Correcting alpha.water
Phase-1 volume fraction = 0.130194  Min(alpha.water) = -1.92294e-05  Max(alpha.water) = 1
DICPCG:  Solving for p_rgh, Initial residual = 0.0486964, Final residual = 0.00087284, No Iterations 1
time step continuity errors : sum local = 0.00219463, global = -2.85159e-07, cumulative = 0.000275843
DICPCG:  Solving for p_rgh, Initial residual = 0.000991742, Final residual = 4.43027e-05, No Iterations 11
time step continuity errors : sum local = 0.000106675, global = 1.88839e-05, cumulative = 0.000294727
DICPCG:  Solving for p_rgh, Initial residual = 0.000133676, Final residual = 8.20407e-08, No Iterations 49
time step continuity errors : sum local = 2.01133e-07, global = -4.64341e-09, cumulative = 0.000294722
ExecutionTime = 0.29 s  ClockTime = 0 s

Courant Number mean: 0.122726 max: 1.12075
Interface Courant Number mean: 0.0112209 max: 0.747993
deltaT = 0.00325521
Time = 0.083724

smoothSolver:  Solving for alpha.water, Initial residual = 0.00430583, Final residual = 2.3368e-10, No Iterations 4
Phase-1 volume fraction = 0.130194  Min(alpha.water) = -8.93263e-15  Max(alpha.water) = 1
MULES: Correcting alpha.water
MULES: Correcting alpha.water
Phase-1 volume fraction = 0.130194  Min(alpha.water) = -3.06158e-05  Max(alpha.water) = 1
DICPCG:  Solving for p_rgh, Initial residual = 0.0371439, Final residual = 0.000919076, No Iterations 1
time step continuity errors : sum local = 0.0015521, global = -1.88789e-07, cumulative = 0.000294534
DICPCG:  Solving for p_rgh, Initial residual = 0.00102166, Final residual = 4.35255e-05, No Iterations 11
time step continuity errors : sum local = 7.12601e-05, global = 1.44802e-05, cumulative = 0.000309014
DICPCG:  Solving for p_rgh, Initial residual = 0.000119858, Final residual = 6.99174e-08, No Iterations 49
time step continuity errors : sum local = 1.163e-07, global = -7.03119e-09, cumulative = 0.000309007
ExecutionTime = 0.3 s  ClockTime = 0 s

Courant Number mean: 0.105635 max: 1.07048
Interface Courant Number mean: 0.00957934 max: 0.63113
deltaT = 0.00271267
Time = 0.0864366

smoothSolver:  Solving for alpha.water, Initial residual = 0.00370981, Final residual = 7.29672e-09, No Iterations 3
Phase-1 volume fraction = 0.130194  Min(alpha.water) = -6.78125e-15  Max(alpha.water) = 1
MULES: Correcting alpha.water
MULES: Correcting alpha.water
Phase-1 volume fraction = 0.130194  Min(alpha.water) = -2.21053e-06  Max(alpha.water) = 1
DICPCG:  Solving for p_rgh, Initial residual = 0.0310957, Final residual = 0.000847704, No Iterations 1
time step continuity errors : sum local = 0.0010112, global = -1.63748e-07, cumulative = 0.000308843
DICPCG:  Solving for p_rgh, Initial residual = 0.000942212, Final residual = 4.38628e-05, No Iterations 11
time step continuity errors : sum local = 5.10331e-05, global = 8.82594e-06, cumulative = 0.000317669
DICPCG:  Solving for p_rgh, Initial residual = 0.00010495, Final residual = 8.8414e-08, No Iterations 48
time step continuity errors : sum local = 1.04143e-07, global = -5.26717e-09, cumulative = 0.000317664
ExecutionTime = 0.32 s  ClockTime = 0 s

Courant Number mean: 0.0902881 max: 1.00449
Interface Courant Number mean: 0.0080738 max: 0.6335
deltaT = 0.00226056
Time = 0.0886972

smoothSolver:  Solving for alpha.water, Initial residual = 0.00317669, Final residual = 2.59764e-09, No Iterations 3
Phase-1 volume fraction = 0.130194  Min(alpha.water) = -5.79801e-15  Max(alpha.water) = 1
MULES: Correcting alpha.water
MULES: Correcting alpha.water
Phase-1 volume fraction = 0.130194  Min(alpha.water) = -2.81465e-08  Max(alpha.water) = 1
DICPCG:  Solving for p_rgh, Initial residual = 0.027963, Final residual = 0.000749797, No Iterations 1
time step continuity errors : sum local = 0.000649106, global = -8.29401e-08, cumulative = 0.000317581
DICPCG:  Solving for p_rgh, Initial residual = 0.000826089, Final residual = 4.03694e-05, No Iterations 11
time step continuity errors : sum local = 3.42115e-05, global = 5.46511e-06, cumulative = 0.000323046
DICPCG:  Solving for p_rgh, Initial residual = 8.82314e-05, Final residual = 8.02078e-08, No Iterations 47
time step continuity errors : sum local = 6.86425e-08, global = -1.91104e-09, cumulative = 0.000323044
ExecutionTime = 0.32 s  ClockTime = 0 s

Courant Number mean: 0.07676 max: 0.912359
Interface Courant Number mean: 0.00664007 max: 0.537917
deltaT = 0.00226056
Time = 0.0909578

smoothSolver:  Solving for alpha.water, Initial residual = 0.00326212, Final residual = 2.55104e-09, No Iterations 3
Phase-1 volume fraction = 0.130194  Min(alpha.water) = -4.9547e-15  Max(alpha.water) = 1
MULES: Correcting alpha.water
MULES: Correcting alpha.water
Phase-1 volume fraction = 0.130194  Min(alpha.water) = -7.06687e-08  Max(alpha.water) = 1
DICPCG:  Solving for p_rgh, Initial residual = 0.0301543, Final residual = 0.000623493, No Iterations 1
time step continuity errors : sum local = 0.000574752, global = -4.97721e-08, cumulative = 0.000322994
DICPCG:  Solving for p_rgh, Initial residual = 0.000694009, Final residual = 3.29916e-05, No Iterations 12
time step continuity errors : sum local = 2.96749e-05, global = 4.09058e-06, cumulative = 0.000327085
DICPCG:  Solving for p_rgh, Initial residual = 7.61109e-05, Final residual = 9.99145e-08, No Iterations 47
time step continuity errors : sum local = 9.06887e-08, global = -4.06224e-09, cumulative = 0.000327081
ExecutionTime = 0.34 s  ClockTime = 0 s

Courant Number mean: 0.0783256 max: 0.980767
Interface Courant Number mean: 0.00668894 max: 0.546411
deltaT = 0.00226056
Time = 0.0932183

smoothSolver:  Solving for alpha.water, Initial residual = 0.0033546, Final residual = 2.67615e-09, No Iterations 3
Phase-1 volume fraction = 0.130194  Min(alpha.water) = -4.24359e-15  Max(alpha.water) = 1
MULES: Correcting alpha.water
MULES: Correcting alpha.water
Phase-1 volume fraction = 0.130194  Min(alpha.water) = -1.62418e-07  Max(alpha.water) = 1
DICPCG:  Solving for p_rgh, Initial residual = 0.0388133, Final residual = 0.000504476, No Iterations 1
time step continuity errors : sum local = 0.000511948, global = -2.99551e-08, cumulative = 0.000327051
DICPCG:  Solving for p_rgh, Initial residual = 0.000573896, Final residual = 2.40644e-05, No Iterations 13
time step continuity errors : sum local = 2.35785e-05, global = 1.59702e-06, cumulative = 0.000328648
DICPCG:  Solving for p_rgh, Initial residual = 6.95529e-05, Final residual = 9.24866e-08, No Iterations 48
time step continuity errors : sum local = 9.14227e-08, global = -5.97985e-09, cumulative = 0.000328642
ExecutionTime = 0.35 s  ClockTime = 0 s

Courant Number mean: 0.079996 max: 1.04295
Interface Courant Number mean: 0.00718601 max: 0.551631
deltaT = 0.00169542
Time = 0.0949137

smoothSolver:  Solving for alpha.water, Initial residual = 0.00258934, Final residual = 5.75625e-10, No Iterations 3
Phase-1 volume fraction = 0.130194  Min(alpha.water) = -3.80537e-15  Max(alpha.water) = 1
MULES: Correcting alpha.water
MULES: Correcting alpha.water
Phase-1 volume fraction = 0.130194  Min(alpha.water) = -4.63341e-14  Max(alpha.water) = 1
DICPCG:  Solving for p_rgh, Initial residual = 0.0288575, Final residual = 0.000481401, No Iterations 1
time step continuity errors : sum local = 0.00026665, global = -1.13891e-08, cumulative = 0.00032863
DICPCG:  Solving for p_rgh, Initial residual = 0.000531423, Final residual = 2.25993e-05, No Iterations 13
time step continuity errors : sum local = 1.22012e-05, global = 8.94863e-07, cumulative = 0.000329525
DICPCG:  Solving for p_rgh, Initial residual = 5.48993e-05, Final residual = 9.47829e-08, No Iterations 46
time step continuity errors : sum local = 5.15208e-08, global = -3.03078e-09, cumulative = 0.000329522
ExecutionTime = 0.37 s  ClockTime = 0 s

Courant Number mean: 0.0609434 max: 0.813145
Interface Courant Number mean: 0.00531346 max: 0.418107
deltaT = 0.00169542
Time = 0.0966092

smoothSolver:  Solving for alpha.water, Initial residual = 0.00263584, Final residual = 5.80509e-10, No Iterations 3
Phase-1 volume fraction = 0.130194  Min(alpha.water) = -3.40835e-15  Max(alpha.water) = 1
MULES: Correcting alpha.water
MULES: Correcting alpha.water
Phase-1 volume fraction = 0.130194  Min(alpha.water) = -5.30831e-14  Max(alpha.water) = 1
DICPCG:  Solving for p_rgh, Initial residual = 0.028001, Final residual = 0.000592171, No Iterations 1
time step continuity errors : sum local = 0.000314373, global = -7.0387e-10, cumulative = 0.000329521
DICPCG:  Solving for p_rgh, Initial residual = 0.000646519, Final residual = 3.13502e-05, No Iterations 12
time step continuity errors : sum local = 1.62409e-05, global = 2.17925e-06, cumulative = 0.000331701
DICPCG:  Solving for p_rgh, Initial residual = 6.60459e-05, Final residual = 9.48542e-08, No Iterations 46
time step continuity errors : sum local = 4.94662e-08, global = -3.46613e-09, cumulative = 0.000331697
ExecutionTime = 0.38 s  ClockTime = 0 s

Courant Number mean: 0.0618951 max: 0.839378
Interface Courant Number mean: 0.00541812 max: 0.750182
deltaT = 0.00169542
Time = 0.0983046

smoothSolver:  Solving for alpha.water, Initial residual = 0.00268928, Final residual = 5.99886e-10, No Iterations 3
Phase-1 volume fraction = 0.130194  Min(alpha.water) = -3.0499e-15  Max(alpha.water) = 1
MULES: Correcting alpha.water
MULES: Correcting alpha.water
Phase-1 volume fraction = 0.130194  Min(alpha.water) = -2.0429e-11  Max(alpha.water) = 1
DICPCG:  Solving for p_rgh, Initial residual = 0.0256565, Final residual = 0.000600062, No Iterations 1
time step continuity errors : sum local = 0.000306739, global = -1.57968e-08, cumulative = 0.000331681
DICPCG:  Solving for p_rgh, Initial residual = 0.000660941, Final residual = 2.76789e-05, No Iterations 12
time step continuity errors : sum local = 1.38595e-05, global = 2.11413e-06, cumulative = 0.000333796
DICPCG:  Solving for p_rgh, Initial residual = 6.3314e-05, Final residual = 9.68481e-08, No Iterations 46
time step continuity errors : sum local = 4.88264e-08, global = -2.97015e-09, cumulative = 0.000333793
ExecutionTime = 0.39 s  ClockTime = 1 s

Courant Number mean: 0.0628301 max: 0.857053
Interface Courant Number mean: 0.00534198 max: 0.809364
deltaT = 0.00169542
Time = 0.1

smoothSolver:  Solving for alpha.water, Initial residual = 0.00273785, Final residual = 6.44737e-10, No Iterations 3
Phase-1 volume fraction = 0.130194  Min(alpha.water) = -2.7265e-15  Max(alpha.water) = 1
MULES: Correcting alpha.water
MULES: Correcting alpha.water
Phase-1 volume fraction = 0.130194  Min(alpha.water) = -7.78271e-10  Max(alpha.water) = 1
DICPCG:  Solving for p_rgh, Initial residual = 0.0266483, Final residual = 0.000531229, No Iterations 1
time step continuity errors : sum local = 0.000274051, global = -1.31124e-08, cumulative = 0.00033378
DICPCG:  Solving for p_rgh, Initial residual = 0.000592957, Final residual = 2.76395e-05, No Iterations 11
time step continuity errors : sum local = 1.39454e-05, global = 1.94507e-06, cumulative = 0.000335725
DICPCG:  Solving for p_rgh, Initial residual = 6.28753e-05, Final residual = 8.57083e-08, No Iterations 43
time step continuity errors : sum local = 4.35359e-08, global = -4.79109e-09, cumulative = 0.00033572
ExecutionTime = 0.4 s  ClockTime = 1 s

Courant Number mean: 0.0637045 max: 0.85639
Interface Courant Number mean: 0.00566137 max: 0.795456
deltaT = 0.00185185
Time = 0.101852

smoothSolver:  Solving for alpha.water, Initial residual = 0.00303779, Final residual = 1.20871e-09, No Iterations 3
Phase-1 volume fraction = 0.130194  Min(alpha.water) = -2.41036e-15  Max(alpha.water) = 1
MULES: Correcting alpha.water
MULES: Correcting alpha.water
Phase-1 volume fraction = 0.130194  Min(alpha.water) = -3.08719e-09  Max(alpha.water) = 1
DICPCG:  Solving for p_rgh, Initial residual = 0.0289862, Final residual = 0.000595196, No Iterations 1
time step continuity errors : sum local = 0.000362029, global = -2.03384e-08, cumulative = 0.000335699
DICPCG:  Solving for p_rgh, Initial residual = 0.000677608, Final residual = 3.36483e-05, No Iterations 11
time step continuity errors : sum local = 1.99677e-05, global = 2.48423e-06, cumulative = 0.000338184
DICPCG:  Solving for p_rgh, Initial residual = 7.58401e-05, Final residual = 9.12562e-08, No Iterations 45
time step continuity errors : sum local = 5.45673e-08, global = -5.00989e-09, cumulative = 0.000338179
ExecutionTime = 0.41 s  ClockTime = 1 s

Courant Number mean: 0.0706063 max: 0.923187
Interface Courant Number mean: 0.00621832 max: 0.923187
deltaT = 0.00200617
Time = 0.103858

smoothSolver:  Solving for alpha.water, Initial residual = 0.0033494, Final residual = 2.20089e-09, No Iterations 3
Phase-1 volume fraction = 0.130194  Min(alpha.water) = -2.10474e-15  Max(alpha.water) = 1
MULES: Correcting alpha.water
MULES: Correcting alpha.water
Phase-1 volume fraction = 0.130194  Min(alpha.water) = -6.45263e-10  Max(alpha.water) = 1
DICPCG:  Solving for p_rgh, Initial residual = 0.0294847, Final residual = 0.00069786, No Iterations 1
time step continuity errors : sum local = 0.000490173, global = -1.94484e-08, cumulative = 0.000338159
DICPCG:  Solving for p_rgh, Initial residual = 0.000793185, Final residual = 2.86699e-05, No Iterations 12
time step continuity errors : sum local = 1.96492e-05, global = 3.4455e-06, cumulative = 0.000341605
DICPCG:  Solving for p_rgh, Initial residual = 8.42498e-05, Final residual = 8.37906e-08, No Iterations 46
time step continuity errors : sum local = 5.7918e-08, global = -1.90743e-09, cumulative = 0.000341603
ExecutionTime = 0.42 s  ClockTime = 1 s

Courant Number mean: 0.0776523 max: 0.974201
Interface Courant Number mean: 0.00636132 max: 0.974201
deltaT = 0.00200617
Time = 0.105864

smoothSolver:  Solving for alpha.water, Initial residual = 0.00343065, Final residual = 2.48352e-09, No Iterations 3
Phase-1 volume fraction = 0.130194  Min(alpha.water) = -1.83296e-15  Max(alpha.water) = 1
MULES: Correcting alpha.water
MULES: Correcting alpha.water
Phase-1 volume fraction = 0.130194  Min(alpha.water) = -5.07698e-08  Max(alpha.water) = 1
DICPCG:  Solving for p_rgh, Initial residual = 0.0276449, Final residual = 0.000740154, No Iterations 1
time step continuity errors : sum local = 0.000518255, global = -2.5489e-08, cumulative = 0.000341577
DICPCG:  Solving for p_rgh, Initial residual = 0.000835506, Final residual = 3.98678e-05, No Iterations 11
time step continuity errors : sum local = 2.72864e-05, global = 3.48139e-06, cumulative = 0.000345059
DICPCG:  Solving for p_rgh, Initial residual = 9.86307e-05, Final residual = 8.11631e-08, No Iterations 45
time step continuity errors : sum local = 5.60237e-08, global = -4.11379e-09, cumulative = 0.000345055
ExecutionTime = 0.43 s  ClockTime = 1 s

Courant Number mean: 0.0788429 max: 0.955976
Interface Courant Number mean: 0.00714037 max: 0.955976
deltaT = 0.00200617
Time = 0.10787

smoothSolver:  Solving for alpha.water, Initial residual = 0.00349406, Final residual = 2.64137e-09, No Iterations 3
Phase-1 volume fraction = 0.130194  Min(alpha.water) = -1.59228e-15  Max(alpha.water) = 1
MULES: Correcting alpha.water
MULES: Correcting alpha.water
Phase-1 volume fraction = 0.130194  Min(alpha.water) = -6.38115e-09  Max(alpha.water) = 1
DICPCG:  Solving for p_rgh, Initial residual = 0.027764, Final residual = 0.000723526, No Iterations 1
time step continuity errors : sum local = 0.000522469, global = -3.32804e-08, cumulative = 0.000345021
DICPCG:  Solving for p_rgh, Initial residual = 0.000823089, Final residual = 2.88035e-05, No Iterations 12
time step continuity errors : sum local = 2.0353e-05, global = 3.52358e-06, cumulative = 0.000348545
DICPCG:  Solving for p_rgh, Initial residual = 9.50283e-05, Final residual = 7.55046e-08, No Iterations 46
time step continuity errors : sum local = 5.38047e-08, global = -5.3428e-09, cumulative = 0.00034854
ExecutionTime = 0.44 s  ClockTime = 1 s

Courant Number mean: 0.0800965 max: 0.979448
Interface Courant Number mean: 0.0072291 max: 0.979448
deltaT = 0.00200617
Time = 0.109877

smoothSolver:  Solving for alpha.water, Initial residual = 0.00355983, Final residual = 2.95475e-09, No Iterations 3
Phase-1 volume fraction = 0.130194  Min(alpha.water) = -1.37934e-15  Max(alpha.water) = 1
MULES: Correcting alpha.water
MULES: Correcting alpha.water
Phase-1 volume fraction = 0.130194  Min(alpha.water) = -1.64452e-08  Max(alpha.water) = 1
DICPCG:  Solving for p_rgh, Initial residual = 0.0331656, Final residual = 0.000571531, No Iterations 1
time step continuity errors : sum local = 0.000447592, global = -3.11787e-08, cumulative = 0.000348508
DICPCG:  Solving for p_rgh, Initial residual = 0.000674722, Final residual = 2.81643e-05, No Iterations 12
time step continuity errors : sum local = 2.13948e-05, global = 2.70487e-06, cumulative = 0.000351213
DICPCG:  Solving for p_rgh, Initial residual = 9.015e-05, Final residual = 9.45704e-08, No Iterations 46
time step continuity errors : sum local = 7.24292e-08, global = -6.5618e-09, cumulative = 0.000351207
ExecutionTime = 0.45 s  ClockTime = 1 s

Courant Number mean: 0.0813714 max: 1.01564
Interface Courant Number mean: 0.00726725 max: 0.863846
deltaT = 0.00191064
Time = 0.111787

smoothSolver:  Solving for alpha.water, Initial residual = 0.00341978, Final residual = 2.43764e-09, No Iterations 3
Phase-1 volume fraction = 0.130194  Min(alpha.water) = -1.19939e-15  Max(alpha.water) = 1
MULES: Correcting alpha.water
MULES: Correcting alpha.water
Phase-1 volume fraction = 0.130194  Min(alpha.water) = -8.96006e-08  Max(alpha.water) = 1
DICPCG:  Solving for p_rgh, Initial residual = 0.0322543, Final residual = 0.000571699, No Iterations 1
time step continuity errors : sum local = 0.000401277, global = -2.23551e-08, cumulative = 0.000351184
DICPCG:  Solving for p_rgh, Initial residual = 0.000664508, Final residual = 2.50838e-05, No Iterations 12
time step continuity errors : sum local = 1.71126e-05, global = 2.70895e-06, cumulative = 0.000353893
DICPCG:  Solving for p_rgh, Initial residual = 7.77962e-05, Final residual = 8.72374e-08, No Iterations 40
time step continuity errors : sum local = 5.9972e-08, global = 5.52528e-09, cumulative = 0.000353899
ExecutionTime = 0.46 s  ClockTime = 1 s

Courant Number mean: 0.0786064 max: 1.01216
Interface Courant Number mean: 0.00712734 max: 0.853614
deltaT = 0.00181966
Time = 0.113607

smoothSolver:  Solving for alpha.water, Initial residual = 0.00331842, Final residual = 1.90415e-09, No Iterations 3
Phase-1 volume fraction = 0.130194  Min(alpha.water) = -1.06844e-15  Max(alpha.water) = 1
MULES: Correcting alpha.water
MULES: Correcting alpha.water
Phase-1 volume fraction = 0.130194  Min(alpha.water) = -1.90665e-07  Max(alpha.water) = 1
DICPCG:  Solving for p_rgh, Initial residual = 0.0313986, Final residual = 0.000521826, No Iterations 1
time step continuity errors : sum local = 0.000328971, global = -5.01478e-09, cumulative = 0.000353894
DICPCG:  Solving for p_rgh, Initial residual = 0.000606944, Final residual = 2.0169e-05, No Iterations 12
time step continuity errors : sum local = 1.236e-05, global = 2.26367e-06, cumulative = 0.000356157
DICPCG:  Solving for p_rgh, Initial residual = 6.60316e-05, Final residual = 8.89971e-08, No Iterations 46
time step continuity errors : sum local = 5.49379e-08, global = -3.46219e-09, cumulative = 0.000356154
ExecutionTime = 0.46 s  ClockTime = 1 s

Courant Number mean: 0.0757258 max: 1.01974
Interface Courant Number mean: 0.00632329 max: 0.961582
deltaT = 0.00173301
Time = 0.11534

smoothSolver:  Solving for alpha.water, Initial residual = 0.00324117, Final residual = 1.47182e-09, No Iterations 3
Phase-1 volume fraction = 0.130194  Min(alpha.water) = -9.97294e-16  Max(alpha.water) = 1
MULES: Correcting alpha.water
MULES: Correcting alpha.water
Phase-1 volume fraction = 0.130194  Min(alpha.water) = -2.18605e-07  Max(alpha.water) = 1
DICPCG:  Solving for p_rgh, Initial residual = 0.0274203, Final residual = 0.000556292, No Iterations 1
time step continuity errors : sum local = 0.000307744, global = -3.26877e-08, cumulative = 0.000356121
DICPCG:  Solving for p_rgh, Initial residual = 0.000644588, Final residual = 2.04889e-05, No Iterations 12
time step continuity errors : sum local = 1.10629e-05, global = 1.83602e-06, cumulative = 0.000357957
DICPCG:  Solving for p_rgh, Initial residual = 7.02739e-05, Final residual = 7.16273e-08, No Iterations 45
time step continuity errors : sum local = 3.89688e-08, global = -4.5628e-09, cumulative = 0.000357953
ExecutionTime = 0.47 s  ClockTime = 1 s

Courant Number mean: 0.0728688 max: 1.04106
Interface Courant Number mean: 0.00648706 max: 0.956112
deltaT = 0.00165048
Time = 0.11699

smoothSolver:  Solving for alpha.water, Initial residual = 0.00314077, Final residual = 1.17966e-09, No Iterations 3
Phase-1 volume fraction = 0.130194  Min(alpha.water) = -9.30963e-16  Max(alpha.water) = 1
MULES: Correcting alpha.water
MULES: Correcting alpha.water
Phase-1 volume fraction = 0.130194  Min(alpha.water) = -4.76823e-07  Max(alpha.water) = 1
DICPCG:  Solving for p_rgh, Initial residual = 0.0257075, Final residual = 0.000580053, No Iterations 1
time step continuity errors : sum local = 0.0002866, global = -2.01161e-08, cumulative = 0.000357933
DICPCG:  Solving for p_rgh, Initial residual = 0.000669235, Final residual = 2.26198e-05, No Iterations 12
time step continuity errors : sum local = 1.09378e-05, global = 1.68788e-06, cumulative = 0.000359621
DICPCG:  Solving for p_rgh, Initial residual = 7.11307e-05, Final residual = 7.11407e-08, No Iterations 45
time step continuity errors : sum local = 3.46489e-08, global = -3.626e-09, cumulative = 0.000359617
ExecutionTime = 0.49 s  ClockTime = 1 s

Courant Number mean: 0.0700422 max: 1.04612
Interface Courant Number mean: 0.00622864 max: 0.943984
deltaT = 0.00157189
Time = 0.118562

smoothSolver:  Solving for alpha.water, Initial residual = 0.00303203, Final residual = 9.11482e-10, No Iterations 3
Phase-1 volume fraction = 0.130194  Min(alpha.water) = -8.69423e-16  Max(alpha.water) = 1
MULES: Correcting alpha.water
MULES: Correcting alpha.water
Phase-1 volume fraction = 0.130194  Min(alpha.water) = -4.08747e-09  Max(alpha.water) = 1
DICPCG:  Solving for p_rgh, Initial residual = 0.02447, Final residual = 0.000602465, No Iterations 1
time step continuity errors : sum local = 0.000269636, global = -1.52176e-08, cumulative = 0.000359602
DICPCG:  Solving for p_rgh, Initial residual = 0.000697433, Final residual = 3.4052e-05, No Iterations 11
time step continuity errors : sum local = 1.49385e-05, global = 1.23551e-06, cumulative = 0.000360837
DICPCG:  Solving for p_rgh, Initial residual = 8.26863e-05, Final residual = 6.34442e-08, No Iterations 45
time step continuity errors : sum local = 2.80292e-08, global = -2.25037e-09, cumulative = 0.000360835
ExecutionTime = 0.5 s  ClockTime = 1 s

Courant Number mean: 0.0672774 max: 1.04197
Interface Courant Number mean: 0.00586739 max: 0.923973
deltaT = 0.00149704
Time = 0.120059

smoothSolver:  Solving for alpha.water, Initial residual = 0.00291341, Final residual = 6.92387e-10, No Iterations 3
Phase-1 volume fraction = 0.130194  Min(alpha.water) = -8.12459e-16  Max(alpha.water) = 1
MULES: Correcting alpha.water
MULES: Correcting alpha.water
Phase-1 volume fraction = 0.130194  Min(alpha.water) = -6.66599e-09  Max(alpha.water) = 1
DICPCG:  Solving for p_rgh, Initial residual = 0.0229113, Final residual = 0.000591567, No Iterations 1
time step continuity errors : sum local = 0.000240642, global = -7.8918e-09, cumulative = 0.000360827
DICPCG:  Solving for p_rgh, Initial residual = 0.00068212, Final residual = 3.02154e-05, No Iterations 11
time step continuity errors : sum local = 1.20795e-05, global = 1.04722e-06, cumulative = 0.000361874
DICPCG:  Solving for p_rgh, Initial residual = 7.73619e-05, Final residual = 7.03733e-08, No Iterations 45
time step continuity errors : sum local = 2.83161e-08, global = -2.28788e-09, cumulative = 0.000361872
ExecutionTime = 0.51 s  ClockTime = 1 s

Courant Number mean: 0.0646268 max: 1.03291
Interface Courant Number mean: 0.00549238 max: 0.897502
deltaT = 0.00142575
Time = 0.121485

smoothSolver:  Solving for alpha.water, Initial residual = 0.00279412, Final residual = 5.17488e-10, No Iterations 3
Phase-1 volume fraction = 0.130194  Min(alpha.water) = -7.59773e-16  Max(alpha.water) = 1
MULES: Correcting alpha.water
MULES: Correcting alpha.water
Phase-1 volume fraction = 0.130194  Min(alpha.water) = -5.30684e-09  Max(alpha.water) = 1
DICPCG:  Solving for p_rgh, Initial residual = 0.0214607, Final residual = 0.000581309, No Iterations 1
time step continuity errors : sum local = 0.000217322, global = -6.38461e-09, cumulative = 0.000361866
DICPCG:  Solving for p_rgh, Initial residual = 0.000660191, Final residual = 2.64801e-05, No Iterations 11
time step continuity errors : sum local = 9.73882e-06, global = 1.00218e-06, cumulative = 0.000362868
DICPCG:  Solving for p_rgh, Initial residual = 7.01812e-05, Final residual = 9.71717e-08, No Iterations 44
time step continuity errors : sum local = 3.59721e-08, global = -1.87679e-09, cumulative = 0.000362866
ExecutionTime = 0.52 s  ClockTime = 1 s

Courant Number mean: 0.062054 max: 1.02197
Interface Courant Number mean: 0.00513012 max: 0.865093
deltaT = 0.00135786
Time = 0.122843

smoothSolver:  Solving for alpha.water, Initial residual = 0.00268246, Final residual = 3.85027e-10, No Iterations 3
Phase-1 volume fraction = 0.130194  Min(alpha.water) = -7.11082e-16  Max(alpha.water) = 1
MULES: Correcting alpha.water
MULES: Correcting alpha.water
Phase-1 volume fraction = 0.130194  Min(alpha.water) = -4.94455e-09  Max(alpha.water) = 1
DICPCG:  Solving for p_rgh, Initial residual = 0.0207524, Final residual = 0.000582048, No Iterations 1
time step continuity errors : sum local = 0.000200525, global = -6.21519e-09, cumulative = 0.00036286
DICPCG:  Solving for p_rgh, Initial residual = 0.000667412, Final residual = 3.19457e-05, No Iterations 8
time step continuity errors : sum local = 1.08429e-05, global = 9.06068e-08, cumulative = 0.00036295
DICPCG:  Solving for p_rgh, Initial residual = 7.41669e-05, Final residual = 8.92074e-08, No Iterations 44
time step continuity errors : sum local = 3.04171e-08, global = 2.09634e-10, cumulative = 0.000362951
ExecutionTime = 0.53 s  ClockTime = 1 s

Courant Number mean: 0.0595567 max: 1.00564
Interface Courant Number mean: 0.00493301 max: 0.94683
deltaT = 0.0012932
Time = 0.124136

smoothSolver:  Solving for alpha.water, Initial residual = 0.00255556, Final residual = 2.95725e-10, No Iterations 3
Phase-1 volume fraction = 0.130194  Min(alpha.water) = -6.66099e-16  Max(alpha.water) = 1
MULES: Correcting alpha.water
MULES: Correcting alpha.water
Phase-1 volume fraction = 0.130194  Min(alpha.water) = -2.63752e-09  Max(alpha.water) = 1
DICPCG:  Solving for p_rgh, Initial residual = 0.019581, Final residual = 0.00051439, No Iterations 1
time step continuity errors : sum local = 0.000164597, global = 3.4785e-09, cumulative = 0.000362954
DICPCG:  Solving for p_rgh, Initial residual = 0.000608959, Final residual = 3.03706e-05, No Iterations 8
time step continuity errors : sum local = 9.59264e-06, global = 6.07439e-08, cumulative = 0.000363015
DICPCG:  Solving for p_rgh, Initial residual = 6.97371e-05, Final residual = 9.89134e-08, No Iterations 43
time step continuity errors : sum local = 3.1383e-08, global = 2.2443e-09, cumulative = 0.000363017
ExecutionTime = 0.54 s  ClockTime = 1 s

Courant Number mean: 0.0571305 max: 0.977153
Interface Courant Number mean: 0.00460024 max: 0.897199
deltaT = 0.0012932
Time = 0.125429

smoothSolver:  Solving for alpha.water, Initial residual = 0.00255808, Final residual = 3.02318e-10, No Iterations 3
Phase-1 volume fraction = 0.130194  Min(alpha.water) = -6.22509e-16  Max(alpha.water) = 1
MULES: Correcting alpha.water
MULES: Correcting alpha.water
Phase-1 volume fraction = 0.130194  Min(alpha.water) = -4.45025e-09  Max(alpha.water) = 1
DICPCG:  Solving for p_rgh, Initial residual = 0.0215798, Final residual = 0.000412707, No Iterations 1
time step continuity errors : sum local = 0.00014017, global = 4.67572e-09, cumulative = 0.000363022
DICPCG:  Solving for p_rgh, Initial residual = 0.000494486, Final residual = 2.32957e-05, No Iterations 9
time step continuity errors : sum local = 7.77645e-06, global = 9.65562e-08, cumulative = 0.000363118
DICPCG:  Solving for p_rgh, Initial residual = 6.20766e-05, Final residual = 9.07577e-08, No Iterations 47
time step continuity errors : sum local = 3.04466e-08, global = -8.66894e-10, cumulative = 0.000363117
ExecutionTime = 0.55 s  ClockTime = 1 s

Courant Number mean: 0.0574964 max: 0.984727
Interface Courant Number mean: 0.00469687 max: 0.88904
deltaT = 0.0012932
Time = 0.126722

smoothSolver:  Solving for alpha.water, Initial residual = 0.00257913, Final residual = 3.09202e-10, No Iterations 3
Phase-1 volume fraction = 0.130194  Min(alpha.water) = -5.80353e-16  Max(alpha.water) = 1
MULES: Correcting alpha.water
MULES: Correcting alpha.water
Phase-1 volume fraction = 0.130194  Min(alpha.water) = -4.11824e-10  Max(alpha.water) = 1
DICPCG:  Solving for p_rgh, Initial residual = 0.0235773, Final residual = 0.000397612, No Iterations 1
time step continuity errors : sum local = 0.000138764, global = -5.0024e-09, cumulative = 0.000363112
DICPCG:  Solving for p_rgh, Initial residual = 0.000477117, Final residual = 2.18697e-05, No Iterations 12
time step continuity errors : sum local = 7.48624e-06, global = 5.06441e-07, cumulative = 0.000363619
DICPCG:  Solving for p_rgh, Initial residual = 6.05925e-05, Final residual = 8.91689e-08, No Iterations 44
time step continuity errors : sum local = 3.07352e-08, global = 2.97231e-10, cumulative = 0.000363619
ExecutionTime = 0.56 s  ClockTime = 1 s

Courant Number mean: 0.0578824 max: 0.975878
Interface Courant Number mean: 0.0047735 max: 0.873607
deltaT = 0.0012932
Time = 0.128016

smoothSolver:  Solving for alpha.water, Initial residual = 0.00259367, Final residual = 3.1691e-10, No Iterations 3
Phase-1 volume fraction = 0.130194  Min(alpha.water) = -5.39587e-16  Max(alpha.water) = 1
MULES: Correcting alpha.water
MULES: Correcting alpha.water
Phase-1 volume fraction = 0.130194  Min(alpha.water) = -8.20575e-12  Max(alpha.water) = 1
DICPCG:  Solving for p_rgh, Initial residual = 0.0219029, Final residual = 0.000423277, No Iterations 1
time step continuity errors : sum local = 0.000143544, global = -2.89308e-09, cumulative = 0.000363616
DICPCG:  Solving for p_rgh, Initial residual = 0.0005075, Final residual = 2.52352e-05, No Iterations 9
time step continuity errors : sum local = 8.40686e-06, global = 7.11672e-08, cumulative = 0.000363687
DICPCG:  Solving for p_rgh, Initial residual = 6.69753e-05, Final residual = 9.63418e-08, No Iterations 43
time step continuity errors : sum local = 3.22986e-08, global = 4.3506e-09, cumulative = 0.000363692
ExecutionTime = 0.57 s  ClockTime = 1 s

Courant Number mean: 0.0582771 max: 0.958365
Interface Courant Number mean: 0.00485534 max: 0.854418
deltaT = 0.0012932
Time = 0.129309

smoothSolver:  Solving for alpha.water, Initial residual = 0.0026133, Final residual = 3.19669e-10, No Iterations 3
Phase-1 volume fraction = 0.130194  Min(alpha.water) = -5.00129e-16  Max(alpha.water) = 1
MULES: Correcting alpha.water
MULES: Correcting alpha.water
Phase-1 volume fraction = 0.130194  Min(alpha.water) = -2.77608e-11  Max(alpha.water) = 1
DICPCG:  Solving for p_rgh, Initial residual = 0.0220501, Final residual = 0.000467837, No Iterations 1
time step continuity errors : sum local = 0.000156018, global = 8.39852e-09, cumulative = 0.0003637
DICPCG:  Solving for p_rgh, Initial residual = 0.000561065, Final residual = 2.25483e-05, No Iterations 13
time step continuity errors : sum local = 7.38797e-06, global = 5.59615e-07, cumulative = 0.00036426
DICPCG:  Solving for p_rgh, Initial residual = 7.34703e-05, Final residual = 9.23652e-08, No Iterations 34
time step continuity errors : sum local = 3.05445e-08, global = -1.15643e-08, cumulative = 0.000364248
ExecutionTime = 0.58 s  ClockTime = 1 s

Courant Number mean: 0.0586787 max: 0.927436
Interface Courant Number mean: 0.00505464 max: 0.927436
deltaT = 0.00137941
Time = 0.130688

smoothSolver:  Solving for alpha.water, Initial residual = 0.00280788, Final residual = 4.70369e-10, No Iterations 3
Phase-1 volume fraction = 0.130194  Min(alpha.water) = -4.59271e-16  Max(alpha.water) = 1
MULES: Correcting alpha.water
MULES: Correcting alpha.water
Phase-1 volume fraction = 0.130194  Min(alpha.water) = -3.12688e-11  Max(alpha.water) = 1
DICPCG:  Solving for p_rgh, Initial residual = 0.0212981, Final residual = 0.000555621, No Iterations 1
time step continuity errors : sum local = 0.000204784, global = -3.17881e-08, cumulative = 0.000364216
DICPCG:  Solving for p_rgh, Initial residual = 0.000667101, Final residual = 3.22747e-05, No Iterations 11
time step continuity errors : sum local = 1.17057e-05, global = 3.8055e-07, cumulative = 0.000364597
DICPCG:  Solving for p_rgh, Initial residual = 9.23425e-05, Final residual = 9.85322e-08, No Iterations 45
time step continuity errors : sum local = 3.6079e-08, global = 1.65144e-09, cumulative = 0.000364599
ExecutionTime = 0.59 s  ClockTime = 1 s

Courant Number mean: 0.0630855 max: 0.955888
Interface Courant Number mean: 0.00545222 max: 0.955888
deltaT = 0.00137941
Time = 0.132068

smoothSolver:  Solving for alpha.water, Initial residual = 0.0028669, Final residual = 4.61918e-10, No Iterations 3
Phase-1 volume fraction = 0.130194  Min(alpha.water) = -4.19524e-16  Max(alpha.water) = 1
MULES: Correcting alpha.water
MULES: Correcting alpha.water
Phase-1 volume fraction = 0.130194  Min(alpha.water) = -1.43512e-09  Max(alpha.water) = 1
DICPCG:  Solving for p_rgh, Initial residual = 0.021336, Final residual = 0.000537069, No Iterations 1
time step continuity errors : sum local = 0.000197619, global = 1.23683e-08, cumulative = 0.000364611
DICPCG:  Solving for p_rgh, Initial residual = 0.000666001, Final residual = 3.25071e-05, No Iterations 11
time step continuity errors : sum local = 1.17779e-05, global = 3.81274e-07, cumulative = 0.000364992
DICPCG:  Solving for p_rgh, Initial residual = 9.61939e-05, Final residual = 9.33682e-08, No Iterations 44
time step continuity errors : sum local = 3.41638e-08, global = -8.08858e-10, cumulative = 0.000364991
ExecutionTime = 0.6 s  ClockTime = 1 s

Courant Number mean: 0.0636326 max: 0.925443
Interface Courant Number mean: 0.00560666 max: 0.925443
deltaT = 0.00137941
Time = 0.133447

smoothSolver:  Solving for alpha.water, Initial residual = 0.00291754, Final residual = 4.54402e-10, No Iterations 3
Phase-1 volume fraction = 0.130194  Min(alpha.water) = -3.80678e-16  Max(alpha.water) = 1
MULES: Correcting alpha.water
MULES: Correcting alpha.water
Phase-1 volume fraction = 0.130194  Min(alpha.water) = -2.46934e-09  Max(alpha.water) = 1
DICPCG:  Solving for p_rgh, Initial residual = 0.0187201, Final residual = 0.000593792, No Iterations 1
time step continuity errors : sum local = 0.000216202, global = -3.60611e-09, cumulative = 0.000364988
DICPCG:  Solving for p_rgh, Initial residual = 0.000756914, Final residual = 3.62876e-05, No Iterations 13
time step continuity errors : sum local = 1.30472e-05, global = 9.01927e-07, cumulative = 0.00036589
DICPCG:  Solving for p_rgh, Initial residual = 0.000115689, Final residual = 8.24266e-08, No Iterations 49
time step continuity errors : sum local = 3.00179e-08, global = -7.87844e-10, cumulative = 0.000365889
ExecutionTime = 0.61 s  ClockTime = 1 s

Courant Number mean: 0.0641499 max: 0.873866
Interface Courant Number mean: 0.00582991 max: 0.873866
deltaT = 0.00150481
Time = 0.134952

smoothSolver:  Solving for alpha.water, Initial residual = 0.00320302, Final residual = 7.64673e-10, No Iterations 3
Phase-1 volume fraction = 0.130194  Min(alpha.water) = -3.38934e-16  Max(alpha.water) = 1
MULES: Correcting alpha.water
MULES: Correcting alpha.water
Phase-1 volume fraction = 0.130194  Min(alpha.water) = -1.53956e-10  Max(alpha.water) = 1
DICPCG:  Solving for p_rgh, Initial residual = 0.0206422, Final residual = 0.000602864, No Iterations 1
time step continuity errors : sum local = 0.000263388, global = -9.85404e-09, cumulative = 0.000365879
DICPCG:  Solving for p_rgh, Initial residual = 0.000742092, Final residual = 3.64312e-05, No Iterations 11
time step continuity errors : sum local = 1.56963e-05, global = 4.97946e-07, cumulative = 0.000366377
DICPCG:  Solving for p_rgh, Initial residual = 0.000113889, Final residual = 9.66296e-08, No Iterations 46
time step continuity errors : sum local = 4.21609e-08, global = 3.5966e-09, cumulative = 0.000366381
ExecutionTime = 0.62 s  ClockTime = 1 s

Courant Number mean: 0.0705308 max: 0.898853
Interface Courant Number mean: 0.00632501 max: 0.898853
deltaT = 0.00167201
Time = 0.136624

smoothSolver:  Solving for alpha.water, Initial residual = 0.00362428, Final residual = 1.43795e-09, No Iterations 3
Phase-1 volume fraction = 0.130194  Min(alpha.water) = -2.93617e-16  Max(alpha.water) = 1
MULES: Correcting alpha.water
MULES: Correcting alpha.water
Phase-1 volume fraction = 0.130194  Min(alpha.water) = -4.20105e-10  Max(alpha.water) = 1
DICPCG:  Solving for p_rgh, Initial residual = 0.0230072, Final residual = 0.000639588, No Iterations 1
time step continuity errors : sum local = 0.000349055, global = 4.6936e-09, cumulative = 0.000366385
DICPCG:  Solving for p_rgh, Initial residual = 0.000794473, Final residual = 3.95393e-05, No Iterations 11
time step continuity errors : sum local = 2.12484e-05, global = 6.74652e-07, cumulative = 0.00036706
DICPCG:  Solving for p_rgh, Initial residual = 0.000122475, Final residual = 8.94896e-08, No Iterations 48
time step continuity errors : sum local = 4.87331e-08, global = 1.30541e-09, cumulative = 0.000367061
ExecutionTime = 0.62 s  ClockTime = 1 s

Courant Number mean: 0.0789349 max: 0.945257
Interface Courant Number mean: 0.00721342 max: 0.945257
deltaT = 0.00167201
Time = 0.138296

smoothSolver:  Solving for alpha.water, Initial residual = 0.00368574, Final residual = 1.45458e-09, No Iterations 3
Phase-1 volume fraction = 0.130194  Min(alpha.water) = -2.53436e-16  Max(alpha.water) = 1
MULES: Correcting alpha.water
MULES: Correcting alpha.water
Phase-1 volume fraction = 0.130194  Min(alpha.water) = -2.54687e-11  Max(alpha.water) = 1
DICPCG:  Solving for p_rgh, Initial residual = 0.0231535, Final residual = 0.000587535, No Iterations 1
time step continuity errors : sum local = 0.000328211, global = -1.10323e-08, cumulative = 0.00036705
DICPCG:  Solving for p_rgh, Initial residual = 0.000705634, Final residual = 2.38809e-05, No Iterations 14
time step continuity errors : sum local = 1.31273e-05, global = 1.24563e-06, cumulative = 0.000368296
DICPCG:  Solving for p_rgh, Initial residual = 0.000102294, Final residual = 8.31818e-08, No Iterations 49
time step continuity errors : sum local = 4.64427e-08, global = 7.13154e-12, cumulative = 0.000368296
ExecutionTime = 0.63 s  ClockTime = 1 s

Courant Number mean: 0.0794683 max: 0.93353
Interface Courant Number mean: 0.0074145 max: 0.93353
deltaT = 0.00167201
Time = 0.139968

smoothSolver:  Solving for alpha.water, Initial residual = 0.00372311, Final residual = 1.49179e-09, No Iterations 3
Phase-1 volume fraction = 0.130194  Min(alpha.water) = -2.35678e-16  Max(alpha.water) = 1
MULES: Correcting alpha.water
MULES: Correcting alpha.water
Phase-1 volume fraction = 0.130194  Min(alpha.water) = -1.84403e-11  Max(alpha.water) = 1
DICPCG:  Solving for p_rgh, Initial residual = 0.0221808, Final residual = 0.000621937, No Iterations 1
time step continuity errors : sum local = 0.000352133, global = -1.43559e-08, cumulative = 0.000368282
DICPCG:  Solving for p_rgh, Initial residual = 0.000730987, Final residual = 2.37991e-05, No Iterations 14
time step continuity errors : sum local = 1.32818e-05, global = 1.26869e-06, cumulative = 0.00036955
DICPCG:  Solving for p_rgh, Initial residual = 9.94706e-05, Final residual = 8.12147e-08, No Iterations 49
time step continuity errors : sum local = 4.59727e-08, global = 1.84207e-10, cumulative = 0.00036955
ExecutionTime = 0.64 s  ClockTime = 1 s

Courant Number mean: 0.0800335 max: 0.950581
Interface Courant Number mean: 0.00780676 max: 0.950581
deltaT = 0.00167201
Time = 0.14164

smoothSolver:  Solving for alpha.water, Initial residual = 0.00381048, Final residual = 1.514e-09, No Iterations 3
Phase-1 volume fraction = 0.130194  Min(alpha.water) = -2.18162e-16  Max(alpha.water) = 1
MULES: Correcting alpha.water
MULES: Correcting alpha.water
Phase-1 volume fraction = 0.130194  Min(alpha.water) = -1.41669e-11  Max(alpha.water) = 1
DICPCG:  Solving for p_rgh, Initial residual = 0.0214695, Final residual = 0.00057101, No Iterations 1
time step continuity errors : sum local = 0.000333167, global = -1.06394e-08, cumulative = 0.00036954
DICPCG:  Solving for p_rgh, Initial residual = 0.000665247, Final residual = 2.37293e-05, No Iterations 14
time step continuity errors : sum local = 1.36425e-05, global = 1.30082e-06, cumulative = 0.000370841
DICPCG:  Solving for p_rgh, Initial residual = 9.7578e-05, Final residual = 8.56334e-08, No Iterations 46
time step continuity errors : sum local = 4.99859e-08, global = -2.32091e-09, cumulative = 0.000370838
ExecutionTime = 0.65 s  ClockTime = 1 s

Courant Number mean: 0.0805128 max: 0.944966
Interface Courant Number mean: 0.00764879 max: 0.944966
deltaT = 0.00167201
Time = 0.143312

smoothSolver:  Solving for alpha.water, Initial residual = 0.00390088, Final residual = 1.51336e-09, No Iterations 3
Phase-1 volume fraction = 0.130194  Min(alpha.water) = -2.00941e-16  Max(alpha.water) = 1
MULES: Correcting alpha.water
MULES: Correcting alpha.water
Phase-1 volume fraction = 0.130194  Min(alpha.water) = -4.1839e-08  Max(alpha.water) = 1
DICPCG:  Solving for p_rgh, Initial residual = 0.0230776, Final residual = 0.000491009, No Iterations 1
time step continuity errors : sum local = 0.000298316, global = -1.60348e-08, cumulative = 0.000370822
DICPCG:  Solving for p_rgh, Initial residual = 0.000583752, Final residual = 2.1459e-05, No Iterations 14
time step continuity errors : sum local = 1.28146e-05, global = 9.28996e-07, cumulative = 0.000371751
DICPCG:  Solving for p_rgh, Initial residual = 9.1165e-05, Final residual = 8.5691e-08, No Iterations 48
time step continuity errors : sum local = 5.19493e-08, global = 2.5443e-10, cumulative = 0.000371751
ExecutionTime = 0.66 s  ClockTime = 1 s

Courant Number mean: 0.0810538 max: 0.93276
Interface Courant Number mean: 0.00864366 max: 0.93276
deltaT = 0.00167201
Time = 0.144984

smoothSolver:  Solving for alpha.water, Initial residual = 0.00396163, Final residual = 1.50344e-09, No Iterations 3
Phase-1 volume fraction = 0.130194  Min(alpha.water) = -1.84025e-16  Max(alpha.water) = 1
MULES: Correcting alpha.water
MULES: Correcting alpha.water
Phase-1 volume fraction = 0.130194  Min(alpha.water) = -4.22809e-09  Max(alpha.water) = 1
DICPCG:  Solving for p_rgh, Initial residual = 0.0216748, Final residual = 0.000487057, No Iterations 1
time step continuity errors : sum local = 0.000296965, global = -5.59614e-09, cumulative = 0.000371746
DICPCG:  Solving for p_rgh, Initial residual = 0.000582644, Final residual = 2.84389e-05, No Iterations 13
time step continuity errors : sum local = 1.70462e-05, global = 1.08709e-06, cumulative = 0.000372833
DICPCG:  Solving for p_rgh, Initial residual = 9.46756e-05, Final residual = 8.10058e-08, No Iterations 47
time step continuity errors : sum local = 4.90588e-08, global = -3.39932e-09, cumulative = 0.00037283
ExecutionTime = 0.68 s  ClockTime = 1 s

Courant Number mean: 0.0815885 max: 0.929817
Interface Courant Number mean: 0.00845126 max: 0.929817
deltaT = 0.00167201
Time = 0.146656

smoothSolver:  Solving for alpha.water, Initial residual = 0.00398033, Final residual = 1.52488e-09, No Iterations 3
Phase-1 volume fraction = 0.130194  Min(alpha.water) = -1.67406e-16  Max(alpha.water) = 1
MULES: Correcting alpha.water
MULES: Correcting alpha.water
Phase-1 volume fraction = 0.130194  Min(alpha.water) = -1.64098e-09  Max(alpha.water) = 1
DICPCG:  Solving for p_rgh, Initial residual = 0.0216173, Final residual = 0.000542866, No Iterations 1
time step continuity errors : sum local = 0.000328698, global = -1.54118e-08, cumulative = 0.000372814
DICPCG:  Solving for p_rgh, Initial residual = 0.000642545, Final residual = 2.37945e-05, No Iterations 14
time step continuity errors : sum local = 1.41743e-05, global = 1.26431e-06, cumulative = 0.000374078
DICPCG:  Solving for p_rgh, Initial residual = 9.51673e-05, Final residual = 8.72429e-08, No Iterations 48
time step continuity errors : sum local = 5.2691e-08, global = -4.3445e-10, cumulative = 0.000374078
ExecutionTime = 0.69 s  ClockTime = 1 s

Courant Number mean: 0.0819258 max: 0.910719
Interface Courant Number mean: 0.00832338 max: 0.910719
deltaT = 0.00167201
Time = 0.148328

smoothSolver:  Solving for alpha.water, Initial residual = 0.00399197, Final residual = 1.5405e-09, No Iterations 3
Phase-1 volume fraction = 0.130194  Min(alpha.water) = -1.51112e-16  Max(alpha.water) = 1
MULES: Correcting alpha.water
MULES: Correcting alpha.water
Phase-1 volume fraction = 0.130194  Min(alpha.water) = -1.27746e-09  Max(alpha.water) = 1
DICPCG:  Solving for p_rgh, Initial residual = 0.0201103, Final residual = 0.000532958, No Iterations 1
time step continuity errors : sum local = 0.00032152, global = -1.06391e-08, cumulative = 0.000374067
DICPCG:  Solving for p_rgh, Initial residual = 0.000636815, Final residual = 3.11965e-05, No Iterations 10
time step continuity errors : sum local = 1.85362e-05, global = 2.0965e-07, cumulative = 0.000374277
DICPCG:  Solving for p_rgh, Initial residual = 9.6409e-05, Final residual = 8.92347e-08, No Iterations 45
time step continuity errors : sum local = 5.36001e-08, global = -3.01581e-09, cumulative = 0.000374274
ExecutionTime = 0.7 s  ClockTime = 1 s

Courant Number mean: 0.0822096 max: 0.901015
Interface Courant Number mean: 0.00852244 max: 0.901015
deltaT = 0.00167201
Time = 0.15

smoothSolver:  Solving for alpha.water, Initial residual = 0.00408718, Final residual = 1.55551e-09, No Iterations 3
Phase-1 volume fraction = 0.130194  Min(alpha.water) = -1.35073e-16  Max(alpha.water) = 1
MULES: Correcting alpha.water
MULES: Correcting alpha.water
Phase-1 volume fraction = 0.130194  Min(alpha.water) = -1.36138e-09  Max(alpha.water) = 1
DICPCG:  Solving for p_rgh, Initial residual = 0.0185695, Final residual = 0.000557931, No Iterations 1
time step continuity errors : sum local = 0.000336037, global = -6.94653e-09, cumulative = 0.000374267
DICPCG:  Solving for p_rgh, Initial residual = 0.000650436, Final residual = 2.8869e-05, No Iterations 9
time step continuity errors : sum local = 1.71483e-05, global = 6.81046e-08, cumulative = 0.000374335
DICPCG:  Solving for p_rgh, Initial residual = 9.81927e-05, Final residual = 8.45112e-08, No Iterations 44
time step continuity errors : sum local = 5.05835e-08, global = 2.00911e-09, cumulative = 0.000374337
ExecutionTime = 0.72 s  ClockTime = 1 s

Courant Number mean: 0.0825094 max: 0.883943
Interface Courant Number mean: 0.00907694 max: 0.883943
deltaT = 0.00185185
Time = 0.151852

smoothSolver:  Solving for alpha.water, Initial residual = 0.00461115, Final residual = 2.91601e-09, No Iterations 3
Phase-1 volume fraction = 0.130194  Min(alpha.water) = -1.17234e-16  Max(alpha.water) = 1
MULES: Correcting alpha.water
MULES: Correcting alpha.water
Phase-1 volume fraction = 0.130194  Min(alpha.water) = -2.78318e-09  Max(alpha.water) = 1
DICPCG:  Solving for p_rgh, Initial residual = 0.0201193, Final residual = 0.000640911, No Iterations 1
time step continuity errors : sum local = 0.000472571, global = 6.1723e-09, cumulative = 0.000374343
DICPCG:  Solving for p_rgh, Initial residual = 0.000743197, Final residual = 3.52924e-05, No Iterations 9
time step continuity errors : sum local = 2.56372e-05, global = 7.4596e-08, cumulative = 0.000374418
DICPCG:  Solving for p_rgh, Initial residual = 0.000120816, Final residual = 9.04339e-08, No Iterations 48
time step continuity errors : sum local = 6.6166e-08, global = 5.40723e-10, cumulative = 0.000374419
ExecutionTime = 0.73 s  ClockTime = 1 s

Courant Number mean: 0.0917741 max: 0.978692
Interface Courant Number mean: 0.0104994 max: 0.978692
deltaT = 0.00185185
Time = 0.153704

smoothSolver:  Solving for alpha.water, Initial residual = 0.00467402, Final residual = 2.98498e-09, No Iterations 3
Phase-1 volume fraction = 0.130194  Min(alpha.water) = -1.00131e-16  Max(alpha.water) = 1
MULES: Correcting alpha.water
MULES: Correcting alpha.water
Phase-1 volume fraction = 0.130194  Min(alpha.water) = -1.01591e-09  Max(alpha.water) = 1
DICPCG:  Solving for p_rgh, Initial residual = 0.018724, Final residual = 0.000622091, No Iterations 1
time step continuity errors : sum local = 0.00046114, global = 2.67877e-10, cumulative = 0.000374419
DICPCG:  Solving for p_rgh, Initial residual = 0.000720565, Final residual = 2.80036e-05, No Iterations 8
time step continuity errors : sum local = 2.04772e-05, global = -1.25279e-08, cumulative = 0.000374406
DICPCG:  Solving for p_rgh, Initial residual = 0.000115262, Final residual = 9.77835e-08, No Iterations 48
time step continuity errors : sum local = 7.16517e-08, global = -3.16208e-09, cumulative = 0.000374403
ExecutionTime = 0.74 s  ClockTime = 1 s

Courant Number mean: 0.0921302 max: 0.978134
Interface Courant Number mean: 0.0104476 max: 0.978134
deltaT = 0.00185185
Time = 0.155556

smoothSolver:  Solving for alpha.water, Initial residual = 0.00474358, Final residual = 3.01098e-09, No Iterations 3
Phase-1 volume fraction = 0.130194  Min(alpha.water) = -8.43828e-17  Max(alpha.water) = 1
MULES: Correcting alpha.water
MULES: Correcting alpha.water
Phase-1 volume fraction = 0.130194  Min(alpha.water) = -6.39078e-07  Max(alpha.water) = 1
DICPCG:  Solving for p_rgh, Initial residual = 0.0186321, Final residual = 0.000599289, No Iterations 1
time step continuity errors : sum local = 0.000446258, global = -5.35473e-09, cumulative = 0.000374398
DICPCG:  Solving for p_rgh, Initial residual = 0.000707293, Final residual = 3.02176e-05, No Iterations 8
time step continuity errors : sum local = 2.22083e-05, global = -1.65887e-08, cumulative = 0.000374381
DICPCG:  Solving for p_rgh, Initial residual = 0.00011636, Final residual = 8.98486e-08, No Iterations 48
time step continuity errors : sum local = 6.62687e-08, global = 8.9273e-10, cumulative = 0.000374382
ExecutionTime = 0.74 s  ClockTime = 1 s

Courant Number mean: 0.0923861 max: 0.962888
Interface Courant Number mean: 0.0102573 max: 0.962888
deltaT = 0.00185185
Time = 0.157407

smoothSolver:  Solving for alpha.water, Initial residual = 0.004836, Final residual = 3.01786e-09, No Iterations 3
Phase-1 volume fraction = 0.130194  Min(alpha.water) = -7.05556e-17  Max(alpha.water) = 1
MULES: Correcting alpha.water
MULES: Correcting alpha.water
Phase-1 volume fraction = 0.130194  Min(alpha.water) = -1.19591e-06  Max(alpha.water) = 1
DICPCG:  Solving for p_rgh, Initial residual = 0.0188904, Final residual = 0.000594953, No Iterations 1
time step continuity errors : sum local = 0.000453575, global = 8.29199e-09, cumulative = 0.00037439
DICPCG:  Solving for p_rgh, Initial residual = 0.000700626, Final residual = 2.82816e-05, No Iterations 8
time step continuity errors : sum local = 2.13073e-05, global = -1.20765e-08, cumulative = 0.000374378
DICPCG:  Solving for p_rgh, Initial residual = 0.000109522, Final residual = 9.96783e-08, No Iterations 48
time step continuity errors : sum local = 7.54616e-08, global = -5.58715e-09, cumulative = 0.000374373
ExecutionTime = 0.75 s  ClockTime = 1 s

Courant Number mean: 0.0926596 max: 0.943029
Interface Courant Number mean: 0.011121 max: 0.943029
deltaT = 0.00193603
Time = 0.159343

smoothSolver:  Solving for alpha.water, Initial residual = 0.00513537, Final residual = 3.87784e-09, No Iterations 3
Phase-1 volume fraction = 0.130194  Min(alpha.water) = -6.47126e-17  Max(alpha.water) = 1
MULES: Correcting alpha.water
MULES: Correcting alpha.water
Phase-1 volume fraction = 0.130194  Min(alpha.water) = -2.45113e-06  Max(alpha.water) = 1
DICPCG:  Solving for p_rgh, Initial residual = 0.0223356, Final residual = 0.000558912, No Iterations 1
time step continuity errors : sum local = 0.000480566, global = -1.23003e-08, cumulative = 0.00037436
DICPCG:  Solving for p_rgh, Initial residual = 0.000662253, Final residual = 2.83618e-05, No Iterations 10
time step continuity errors : sum local = 2.40019e-05, global = 7.91579e-08, cumulative = 0.00037444
DICPCG:  Solving for p_rgh, Initial residual = 0.000108834, Final residual = 6.22571e-08, No Iterations 50
time step continuity errors : sum local = 5.30673e-08, global = -1.71632e-09, cumulative = 0.000374438
ExecutionTime = 0.76 s  ClockTime = 1 s

Courant Number mean: 0.0970824 max: 0.962729
Interface Courant Number mean: 0.0118497 max: 0.962729
deltaT = 0.00193603
Time = 0.161279

smoothSolver:  Solving for alpha.water, Initial residual = 0.00519495, Final residual = 3.83301e-09, No Iterations 3
Phase-1 volume fraction = 0.130194  Min(alpha.water) = -5.89313e-17  Max(alpha.water) = 1
MULES: Correcting alpha.water
MULES: Correcting alpha.water
Phase-1 volume fraction = 0.130194  Min(alpha.water) = -3.15903e-06  Max(alpha.water) = 1
DICPCG:  Solving for p_rgh, Initial residual = 0.0213851, Final residual = 0.000557658, No Iterations 1
time step continuity errors : sum local = 0.000477977, global = 6.47092e-09, cumulative = 0.000374444
DICPCG:  Solving for p_rgh, Initial residual = 0.000658435, Final residual = 3.03287e-05, No Iterations 9
time step continuity errors : sum local = 2.56032e-05, global = 2.93157e-08, cumulative = 0.000374474
DICPCG:  Solving for p_rgh, Initial residual = 0.000118325, Final residual = 7.30421e-08, No Iterations 50
time step continuity errors : sum local = 6.19368e-08, global = -1.3927e-09, cumulative = 0.000374472
ExecutionTime = 0.77 s  ClockTime = 1 s

Courant Number mean: 0.0972173 max: 0.942533
Interface Courant Number mean: 0.0114875 max: 0.942533
deltaT = 0.00203792
Time = 0.163317

smoothSolver:  Solving for alpha.water, Initial residual = 0.00550866, Final residual = 5.10802e-09, No Iterations 3
Phase-1 volume fraction = 0.130194  Min(alpha.water) = -5.28851e-17  Max(alpha.water) = 1
MULES: Correcting alpha.water
MULES: Correcting alpha.water
Phase-1 volume fraction = 0.130194  Min(alpha.water) = -3.80257e-06  Max(alpha.water) = 1.00001
DICPCG:  Solving for p_rgh, Initial residual = 0.020831, Final residual = 0.000527056, No Iterations 1
time step continuity errors : sum local = 0.00049238, global = 1.35482e-08, cumulative = 0.000374486
DICPCG:  Solving for p_rgh, Initial residual = 0.000643582, Final residual = 2.5277e-05, No Iterations 8
time step continuity errors : sum local = 2.32251e-05, global = -9.705e-09, cumulative = 0.000374476
DICPCG:  Solving for p_rgh, Initial residual = 0.000126329, Final residual = 7.38688e-08, No Iterations 50
[...]
time step continuity errors : sum local = 1.82414e-05, global = 4.40687e-08, cumulative = 0.00369317
DICPCG:  Solving for p_rgh, Initial residual = 0.000122986, Final residual = 9.58889e-08, No Iterations 43
time step continuity errors : sum local = 5.73428e-08, global = -4.19784e-09, cumulative = 0.00369317
ExecutionTime = 5.37 s  ClockTime = 5 s

Courant Number mean: 0.156902 max: 0.976035
Interface Courant Number mean: 0.0293817 max: 0.403447
deltaT = 0.00220032
Time = 0.962595

smoothSolver:  Solving for alpha.water, Initial residual = 0.00647692, Final residual = 1.6347e-09, No Iterations 3
Phase-1 volume fraction = 0.127502  Min(alpha.water) = -5.46061e-16  Max(alpha.water) = 1
MULES: Correcting alpha.water
MULES: Correcting alpha.water
Phase-1 volume fraction = 0.127502  Min(alpha.water) = -3.28089e-06  Max(alpha.water) = 1
DICPCG:  Solving for p_rgh, Initial residual = 0.0209104, Final residual = 0.000653402, No Iterations 2
time step continuity errors : sum local = 0.000388295, global = -1.09157e-08, cumulative = 0.00369316
DICPCG:  Solving for p_rgh, Initial residual = 0.000888366, Final residual = 3.79389e-05, No Iterations 9
time step continuity errors : sum local = 2.23798e-05, global = 1.93931e-07, cumulative = 0.00369335
DICPCG:  Solving for p_rgh, Initial residual = 0.000176953, Final residual = 9.43586e-08, No Iterations 43
time step continuity errors : sum local = 5.56106e-08, global = -7.39884e-09, cumulative = 0.00369334
ExecutionTime = 5.38 s  ClockTime = 5 s

Courant Number mean: 0.156887 max: 0.951337
Interface Courant Number mean: 0.0288903 max: 0.398614
deltaT = 0.00220032
Time = 0.964795

smoothSolver:  Solving for alpha.water, Initial residual = 0.0064062, Final residual = 1.52203e-09, No Iterations 3
Phase-1 volume fraction = 0.127502  Min(alpha.water) = -5.36474e-16  Max(alpha.water) = 1
MULES: Correcting alpha.water
MULES: Correcting alpha.water
Phase-1 volume fraction = 0.127502  Min(alpha.water) = -3.45022e-06  Max(alpha.water) = 1
DICPCG:  Solving for p_rgh, Initial residual = 0.022669, Final residual = 0.000912829, No Iterations 2
time step continuity errors : sum local = 0.000542153, global = -5.00459e-08, cumulative = 0.00369329
DICPCG:  Solving for p_rgh, Initial residual = 0.00114641, Final residual = 5.41332e-05, No Iterations 8
time step continuity errors : sum local = 3.19575e-05, global = -2.94097e-07, cumulative = 0.003693
DICPCG:  Solving for p_rgh, Initial residual = 0.000209925, Final residual = 9.3719e-08, No Iterations 46
time step continuity errors : sum local = 5.53938e-08, global = 3.92595e-09, cumulative = 0.003693
ExecutionTime = 5.38 s  ClockTime = 5 s

Courant Number mean: 0.156839 max: 0.945945
Interface Courant Number mean: 0.0290626 max: 0.394985
deltaT = 0.00220032
Time = 0.966995

smoothSolver:  Solving for alpha.water, Initial residual = 0.00635801, Final residual = 1.41986e-09, No Iterations 3
Phase-1 volume fraction = 0.127502  Min(alpha.water) = -5.26896e-16  Max(alpha.water) = 1
MULES: Correcting alpha.water
MULES: Correcting alpha.water
Phase-1 volume fraction = 0.127502  Min(alpha.water) = -1.16046e-06  Max(alpha.water) = 1
DICPCG:  Solving for p_rgh, Initial residual = 0.0227486, Final residual = 0.000611082, No Iterations 2
time step continuity errors : sum local = 0.00036536, global = -9.11803e-09, cumulative = 0.00369299
DICPCG:  Solving for p_rgh, Initial residual = 0.000825097, Final residual = 3.79666e-05, No Iterations 7
time step continuity errors : sum local = 2.26352e-05, global = -2.18302e-07, cumulative = 0.00369278
DICPCG:  Solving for p_rgh, Initial residual = 0.000150673, Final residual = 6.97718e-08, No Iterations 46
time step continuity errors : sum local = 4.15775e-08, global = 3.40868e-09, cumulative = 0.00369278
ExecutionTime = 5.39 s  ClockTime = 6 s

Courant Number mean: 0.15679 max: 0.938539
Interface Courant Number mean: 0.0288936 max: 0.391666
deltaT = 0.00220032
Time = 0.969196

smoothSolver:  Solving for alpha.water, Initial residual = 0.00633435, Final residual = 1.34263e-09, No Iterations 3
Phase-1 volume fraction = 0.127502  Min(alpha.water) = -5.17337e-16  Max(alpha.water) = 1
MULES: Correcting alpha.water
MULES: Correcting alpha.water
Phase-1 volume fraction = 0.127502  Min(alpha.water) = -1.45856e-06  Max(alpha.water) = 1
DICPCG:  Solving for p_rgh, Initial residual = 0.0224939, Final residual = 0.00043443, No Iterations 2
time step continuity errors : sum local = 0.000266197, global = -1.13777e-08, cumulative = 0.00369277
DICPCG:  Solving for p_rgh, Initial residual = 0.000632381, Final residual = 2.88253e-05, No Iterations 8
time step continuity errors : sum local = 1.7635e-05, global = -3.18852e-07, cumulative = 0.00369245
DICPCG:  Solving for p_rgh, Initial residual = 0.00011849, Final residual = 6.56958e-08, No Iterations 36
time step continuity errors : sum local = 4.02257e-08, global = 2.20526e-09, cumulative = 0.00369245
ExecutionTime = 5.4 s  ClockTime = 6 s

Courant Number mean: 0.156793 max: 0.926631
Interface Courant Number mean: 0.0295537 max: 0.392396
deltaT = 0.00236957
Time = 0.971565

smoothSolver:  Solving for alpha.water, Initial residual = 0.00684668, Final residual = 2.03508e-09, No Iterations 3
Phase-1 volume fraction = 0.127502  Min(alpha.water) = -5.07083e-16  Max(alpha.water) = 1
MULES: Correcting alpha.water
MULES: Correcting alpha.water
Phase-1 volume fraction = 0.127502  Min(alpha.water) = -1.78068e-07  Max(alpha.water) = 1
DICPCG:  Solving for p_rgh, Initial residual = 0.0218853, Final residual = 0.00080917, No Iterations 2
time step continuity errors : sum local = 0.00058152, global = -3.4757e-08, cumulative = 0.00369242
DICPCG:  Solving for p_rgh, Initial residual = 0.00103502, Final residual = 4.2877e-05, No Iterations 9
time step continuity errors : sum local = 3.05165e-05, global = 6.26628e-07, cumulative = 0.00369304
DICPCG:  Solving for p_rgh, Initial residual = 0.000215502, Final residual = 9.52322e-08, No Iterations 43
time step continuity errors : sum local = 6.78714e-08, global = -1.02645e-08, cumulative = 0.00369303
ExecutionTime = 5.41 s  ClockTime = 6 s

Courant Number mean: 0.169158 max: 0.980586
Interface Courant Number mean: 0.032882 max: 0.42362
deltaT = 0.00236957
Time = 0.973935

smoothSolver:  Solving for alpha.water, Initial residual = 0.00682553, Final residual = 1.96836e-09, No Iterations 3
Phase-1 volume fraction = 0.127502  Min(alpha.water) = -4.98847e-16  Max(alpha.water) = 1
MULES: Correcting alpha.water
MULES: Correcting alpha.water
Phase-1 volume fraction = 0.127502  Min(alpha.water) = -2.15655e-07  Max(alpha.water) = 1
DICPCG:  Solving for p_rgh, Initial residual = 0.0228184, Final residual = 0.000992263, No Iterations 2
time step continuity errors : sum local = 0.000680464, global = -1.51815e-07, cumulative = 0.00369288
DICPCG:  Solving for p_rgh, Initial residual = 0.00123051, Final residual = 4.80905e-05, No Iterations 9
time step continuity errors : sum local = 3.27173e-05, global = -6.3645e-07, cumulative = 0.00369225
DICPCG:  Solving for p_rgh, Initial residual = 0.000243557, Final residual = 9.80676e-08, No Iterations 37
time step continuity errors : sum local = 6.67467e-08, global = 5.4539e-09, cumulative = 0.00369225
ExecutionTime = 5.42 s  ClockTime = 6 s

Courant Number mean: 0.169406 max: 0.96034
Interface Courant Number mean: 0.0324647 max: 0.420129
deltaT = 0.00236957
Time = 0.976304

smoothSolver:  Solving for alpha.water, Initial residual = 0.00677425, Final residual = 1.95573e-09, No Iterations 3
Phase-1 volume fraction = 0.127502  Min(alpha.water) = -4.97227e-16  Max(alpha.water) = 1
MULES: Correcting alpha.water
MULES: Correcting alpha.water
Phase-1 volume fraction = 0.127502  Min(alpha.water) = -3.04584e-07  Max(alpha.water) = 1
DICPCG:  Solving for p_rgh, Initial residual = 0.022741, Final residual = 0.000649473, No Iterations 2
time step continuity errors : sum local = 0.000444893, global = -4.95143e-08, cumulative = 0.0036922
DICPCG:  Solving for p_rgh, Initial residual = 0.000874531, Final residual = 3.8872e-05, No Iterations 8
time step continuity errors : sum local = 2.64876e-05, global = -5.54457e-07, cumulative = 0.00369165
DICPCG:  Solving for p_rgh, Initial residual = 0.000176082, Final residual = 8.91089e-08, No Iterations 40
time step continuity errors : sum local = 6.08011e-08, global = 2.87593e-09, cumulative = 0.00369165
ExecutionTime = 5.42 s  ClockTime = 6 s

Courant Number mean: 0.169613 max: 0.940377
Interface Courant Number mean: 0.0325506 max: 0.421921
deltaT = 0.00236957
Time = 0.978674

smoothSolver:  Solving for alpha.water, Initial residual = 0.00668456, Final residual = 1.93899e-09, No Iterations 3
Phase-1 volume fraction = 0.127502  Min(alpha.water) = -4.95213e-16  Max(alpha.water) = 1
MULES: Correcting alpha.water
MULES: Correcting alpha.water
Phase-1 volume fraction = 0.127502  Min(alpha.water) = -6.65018e-07  Max(alpha.water) = 1
DICPCG:  Solving for p_rgh, Initial residual = 0.0220129, Final residual = 0.000428588, No Iterations 2
time step continuity errors : sum local = 0.000293542, global = -7.10869e-08, cumulative = 0.00369158
DICPCG:  Solving for p_rgh, Initial residual = 0.00064028, Final residual = 3.15964e-05, No Iterations 7
time step continuity errors : sum local = 2.15499e-05, global = -5.26262e-07, cumulative = 0.00369105
DICPCG:  Solving for p_rgh, Initial residual = 0.000123845, Final residual = 8.53684e-08, No Iterations 42
time step continuity errors : sum local = 5.82046e-08, global = -9.04627e-09, cumulative = 0.00369104
ExecutionTime = 5.43 s  ClockTime = 6 s

Courant Number mean: 0.169891 max: 0.930382
Interface Courant Number mean: 0.0329397 max: 0.401494
deltaT = 0.00236957
Time = 0.981043

smoothSolver:  Solving for alpha.water, Initial residual = 0.00665609, Final residual = 1.84457e-09, No Iterations 3
Phase-1 volume fraction = 0.127502  Min(alpha.water) = -4.92828e-16  Max(alpha.water) = 1
MULES: Correcting alpha.water
MULES: Correcting alpha.water
Phase-1 volume fraction = 0.127502  Min(alpha.water) = -1.06912e-06  Max(alpha.water) = 1
DICPCG:  Solving for p_rgh, Initial residual = 0.0230467, Final residual = 0.000631739, No Iterations 3
time step continuity errors : sum local = 0.000434561, global = -1.75859e-07, cumulative = 0.00369087
DICPCG:  Solving for p_rgh, Initial residual = 0.00086696, Final residual = 4.07501e-05, No Iterations 11
time step continuity errors : sum local = 2.7666e-05, global = 5.99128e-06, cumulative = 0.00369686
DICPCG:  Solving for p_rgh, Initial residual = 0.000173671, Final residual = 9.96603e-08, No Iterations 41
time step continuity errors : sum local = 6.77052e-08, global = -3.15756e-09, cumulative = 0.00369686
ExecutionTime = 5.44 s  ClockTime = 6 s

Courant Number mean: 0.170301 max: 0.921972
Interface Courant Number mean: 0.0330977 max: 0.402879
deltaT = 0.00236957
Time = 0.983413

smoothSolver:  Solving for alpha.water, Initial residual = 0.00662052, Final residual = 1.82305e-09, No Iterations 3
Phase-1 volume fraction = 0.127502  Min(alpha.water) = -4.90092e-16  Max(alpha.water) = 1
MULES: Correcting alpha.water
MULES: Correcting alpha.water
Phase-1 volume fraction = 0.127502  Min(alpha.water) = -2.17225e-06  Max(alpha.water) = 1
DICPCG:  Solving for p_rgh, Initial residual = 0.0219944, Final residual = 0.000986621, No Iterations 2
time step continuity errors : sum local = 0.000664441, global = -4.6331e-07, cumulative = 0.00369639
DICPCG:  Solving for p_rgh, Initial residual = 0.00122761, Final residual = 4.94109e-05, No Iterations 9
time step continuity errors : sum local = 3.29351e-05, global = -3.32805e-07, cumulative = 0.00369606
DICPCG:  Solving for p_rgh, Initial residual = 0.000252282, Final residual = 7.66814e-08, No Iterations 41
time step continuity errors : sum local = 5.11494e-08, global = 1.58451e-09, cumulative = 0.00369606
ExecutionTime = 5.45 s  ClockTime = 6 s

Courant Number mean: 0.170691 max: 0.910765
Interface Courant Number mean: 0.0332119 max: 0.525833
deltaT = 0.00236957
Time = 0.985783

smoothSolver:  Solving for alpha.water, Initial residual = 0.0065976, Final residual = 1.78126e-09, No Iterations 3
Phase-1 volume fraction = 0.127502  Min(alpha.water) = -4.87025e-16  Max(alpha.water) = 1
MULES: Correcting alpha.water
MULES: Correcting alpha.water
Phase-1 volume fraction = 0.127502  Min(alpha.water) = -3.31166e-06  Max(alpha.water) = 1
DICPCG:  Solving for p_rgh, Initial residual = 0.0221823, Final residual = 0.000690849, No Iterations 2
time step continuity errors : sum local = 0.000460992, global = -1.60819e-07, cumulative = 0.0036959
DICPCG:  Solving for p_rgh, Initial residual = 0.000914453, Final residual = 3.63169e-05, No Iterations 9
time step continuity errors : sum local = 2.4026e-05, global = -5.52247e-07, cumulative = 0.00369535
DICPCG:  Solving for p_rgh, Initial residual = 0.000190498, Final residual = 7.91005e-08, No Iterations 42
time step continuity errors : sum local = 5.23475e-08, global = -2.59115e-09, cumulative = 0.00369535
ExecutionTime = 5.45 s  ClockTime = 6 s

Courant Number mean: 0.170994 max: 0.897489
Interface Courant Number mean: 0.0334934 max: 0.51777
deltaT = 0.00236957
Time = 0.988152

smoothSolver:  Solving for alpha.water, Initial residual = 0.00657334, Final residual = 1.69051e-09, No Iterations 3
Phase-1 volume fraction = 0.127502  Min(alpha.water) = -4.83648e-16  Max(alpha.water) = 1
MULES: Correcting alpha.water
MULES: Correcting alpha.water
Phase-1 volume fraction = 0.127502  Min(alpha.water) = -4.06861e-06  Max(alpha.water) = 1
DICPCG:  Solving for p_rgh, Initial residual = 0.0218988, Final residual = 0.000479718, No Iterations 2
time step continuity errors : sum local = 0.000318759, global = -1.49591e-07, cumulative = 0.0036952
DICPCG:  Solving for p_rgh, Initial residual = 0.00069644, Final residual = 3.24165e-05, No Iterations 9
time step continuity errors : sum local = 2.14064e-05, global = -6.83078e-07, cumulative = 0.00369451
DICPCG:  Solving for p_rgh, Initial residual = 0.000149437, Final residual = 7.51717e-08, No Iterations 41
time step continuity errors : sum local = 4.96387e-08, global = -3.89614e-10, cumulative = 0.00369451
ExecutionTime = 5.46 s  ClockTime = 6 s

Courant Number mean: 0.171225 max: 0.882951
Interface Courant Number mean: 0.033889 max: 0.512028
deltaT = 0.00236957
Time = 0.990522

smoothSolver:  Solving for alpha.water, Initial residual = 0.00655119, Final residual = 1.64072e-09, No Iterations 3
Phase-1 volume fraction = 0.127502  Min(alpha.water) = -4.7998e-16  Max(alpha.water) = 1
MULES: Correcting alpha.water
MULES: Correcting alpha.water
Phase-1 volume fraction = 0.127502  Min(alpha.water) = -4.41701e-06  Max(alpha.water) = 1
DICPCG:  Solving for p_rgh, Initial residual = 0.0205827, Final residual = 0.000591903, No Iterations 2
time step continuity errors : sum local = 0.000394557, global = -1.46033e-07, cumulative = 0.00369437
DICPCG:  Solving for p_rgh, Initial residual = 0.000813458, Final residual = 3.17349e-05, No Iterations 9
time step continuity errors : sum local = 2.09533e-05, global = 2.98641e-07, cumulative = 0.00369466
DICPCG:  Solving for p_rgh, Initial residual = 0.000165485, Final residual = 9.87376e-08, No Iterations 41
time step continuity errors : sum local = 6.52875e-08, global = -4.86309e-11, cumulative = 0.00369466
ExecutionTime = 5.47 s  ClockTime = 6 s

Courant Number mean: 0.171501 max: 0.867886
Interface Courant Number mean: 0.0334847 max: 0.508526
deltaT = 0.00236957
Time = 0.992891

smoothSolver:  Solving for alpha.water, Initial residual = 0.00650241, Final residual = 1.59376e-09, No Iterations 3
Phase-1 volume fraction = 0.127502  Min(alpha.water) = -4.76037e-16  Max(alpha.water) = 1
MULES: Correcting alpha.water
MULES: Correcting alpha.water
Phase-1 volume fraction = 0.127502  Min(alpha.water) = -4.48456e-06  Max(alpha.water) = 1
DICPCG:  Solving for p_rgh, Initial residual = 0.0231064, Final residual = 0.000973744, No Iterations 2
time step continuity errors : sum local = 0.000649084, global = -2.12851e-07, cumulative = 0.00369445
DICPCG:  Solving for p_rgh, Initial residual = 0.00122063, Final residual = 6.04731e-05, No Iterations 9
time step continuity errors : sum local = 3.97839e-05, global = 6.52131e-07, cumulative = 0.0036951
DICPCG:  Solving for p_rgh, Initial residual = 0.000261835, Final residual = 7.93183e-08, No Iterations 43
time step continuity errors : sum local = 5.23529e-08, global = 3.12084e-11, cumulative = 0.0036951
ExecutionTime = 5.48 s  ClockTime = 6 s

Courant Number mean: 0.171771 max: 0.852759
Interface Courant Number mean: 0.0336649 max: 0.50496
deltaT = 0.00236957
Time = 0.995261

smoothSolver:  Solving for alpha.water, Initial residual = 0.00645137, Final residual = 1.51994e-09, No Iterations 3
Phase-1 volume fraction = 0.127502  Min(alpha.water) = -4.71836e-16  Max(alpha.water) = 1
MULES: Correcting alpha.water
MULES: Correcting alpha.water
Phase-1 volume fraction = 0.127502  Min(alpha.water) = -4.39952e-06  Max(alpha.water) = 1
DICPCG:  Solving for p_rgh, Initial residual = 0.0232696, Final residual = 0.00074838, No Iterations 2
time step continuity errors : sum local = 0.000495812, global = -2.72704e-07, cumulative = 0.00369483
DICPCG:  Solving for p_rgh, Initial residual = 0.000954578, Final residual = 4.14259e-05, No Iterations 9
time step continuity errors : sum local = 2.71619e-05, global = -7.29049e-07, cumulative = 0.0036941
DICPCG:  Solving for p_rgh, Initial residual = 0.000197749, Final residual = 9.44004e-08, No Iterations 42
time step continuity errors : sum local = 6.19862e-08, global = -4.92762e-09, cumulative = 0.0036941
ExecutionTime = 5.49 s  ClockTime = 6 s

Courant Number mean: 0.171927 max: 0.839951
Interface Courant Number mean: 0.0334057 max: 0.495434
deltaT = 0.00236957
Time = 0.99763

smoothSolver:  Solving for alpha.water, Initial residual = 0.0063929, Final residual = 1.41367e-09, No Iterations 3
Phase-1 volume fraction = 0.127502  Min(alpha.water) = -4.67395e-16  Max(alpha.water) = 1
MULES: Correcting alpha.water
MULES: Correcting alpha.water
Phase-1 volume fraction = 0.127502  Min(alpha.water) = -4.17062e-06  Max(alpha.water) = 1
DICPCG:  Solving for p_rgh, Initial residual = 0.0229686, Final residual = 0.000554024, No Iterations 2
time step continuity errors : sum local = 0.000365571, global = -2.08662e-07, cumulative = 0.00369389
DICPCG:  Solving for p_rgh, Initial residual = 0.000750235, Final residual = 3.56571e-05, No Iterations 9
time step continuity errors : sum local = 2.33385e-05, global = -5.73073e-07, cumulative = 0.00369332
DICPCG:  Solving for p_rgh, Initial residual = 0.000158163, Final residual = 7.01725e-08, No Iterations 42
time step continuity errors : sum local = 4.59985e-08, global = -2.15653e-09, cumulative = 0.00369331
ExecutionTime = 5.5 s  ClockTime = 6 s

Courant Number mean: 0.172049 max: 0.832265
Interface Courant Number mean: 0.032773 max: 0.487625
deltaT = 0.00236957
Time = 1

smoothSolver:  Solving for alpha.water, Initial residual = 0.00631964, Final residual = 1.33045e-09, No Iterations 3
Phase-1 volume fraction = 0.127502  Min(alpha.water) = -4.62733e-16  Max(alpha.water) = 1
MULES: Correcting alpha.water
MULES: Correcting alpha.water
Phase-1 volume fraction = 0.127502  Min(alpha.water) = -3.83601e-06  Max(alpha.water) = 1
DICPCG:  Solving for p_rgh, Initial residual = 0.0213402, Final residual = 0.000393273, No Iterations 2
time step continuity errors : sum local = 0.00026321, global = -2.15102e-07, cumulative = 0.0036931
DICPCG:  Solving for p_rgh, Initial residual = 0.000564115, Final residual = 2.57991e-05, No Iterations 7
time step continuity errors : sum local = 1.71364e-05, global = -1.01441e-06, cumulative = 0.00369208
DICPCG:  Solving for p_rgh, Initial residual = 0.000105412, Final residual = 9.03298e-08, No Iterations 41
time step continuity errors : sum local = 6.00112e-08, global = -4.45813e-10, cumulative = 0.00369208
ExecutionTime = 5.5 s  ClockTime = 6 s

End

