/*---------------------------------------------------------------------------*\
  =========                 |
  \\      /  F ield         | OpenFOAM: The Open Source CFD Toolbox
   \\    /   O peration     | Website:  https://openfoam.org
    \\  /    A nd           | Version:  6
     \\/     M anipulation  |
\*---------------------------------------------------------------------------*/
Build  : 6-fa1285188035
Exec   : interFoam -parallel
Date   : Dec 21 2024
Time   : 13:43:26
Host   : "Maverick"
PID    : 3100
I/O    : uncollated
Case   : /home/maverick/OpenFOAM/maverick-6/run/damBreakFine
nProcs : 4
Slaves : 
3
(
"Maverick.3101"
"Maverick.3102"
"Maverick.3103"
)

Pstream initialized with:
    floatTransfer      : 0
    nProcsSimpleSum    : 0
    commsType          : nonBlocking
    polling iterations : 0
sigFpe : Enabling floating point exception trapping (FOAM_SIGFPE).
fileModificationChecking : Monitoring run-time modified files using timeStampMaster (fileModificationSkew 10)
allowSystemOperations : Allowing user-supplied system call operations

// * * * * * * * * * * * * * * * * * * * * * * * * * * * * * * * * * * * * * //
Create time

Create mesh for time = 0


PIMPLE: No convergence criteria found


PIMPLE: Operating solver in PISO mode

Reading field p_rgh

Reading field U

Reading/calculating face flux field phi

Reading transportProperties

Selecting incompressible transport model Newtonian
Selecting incompressible transport model Newtonian
Selecting turbulence model type laminar
Selecting laminar stress model Stokes

Reading g

Reading hRef
Calculating field g.h

No MRF models present

No finite volume options present
DICPCG:  Solving for pcorr, Initial residual = 0, Final residual = 0, No Iterations 0
time step continuity errors : sum local = 0, global = 0, cumulative = 0
Courant Number mean: 0 max: 0

Starting time loop

Courant Number mean: 0 max: 0
Interface Courant Number mean: 0 max: 0
deltaT = 0.00119048
Time = 0.00119048

smoothSolver:  Solving for alpha.water, Initial residual = 0, Final residual = 0, No Iterations 0
Phase-1 volume fraction = 0.130194  Min(alpha.water) = 0  Max(alpha.water) = 1
MULES: Correcting alpha.water
MULES: Correcting alpha.water
Phase-1 volume fraction = 0.130194  Min(alpha.water) = 0  Max(alpha.water) = 1
DICPCG:  Solving for p_rgh, Initial residual = 1, Final residual = 0.00349276, No Iterations 1
time step continuity errors : sum local = 0.000966325, global = -1.44379e-12, cumulative = -1.44379e-12
DICPCG:  Solving for p_rgh, Initial residual = 0.00165788, Final residual = 7.35016e-05, No Iterations 14
time step continuity errors : sum local = 4.28489e-05, global = -1.13567e-05, cumulative = -1.13567e-05
DICPCG:  Solving for p_rgh, Initial residual = 5.94073e-05, Final residual = 7.92233e-08, No Iterations 54
time step continuity errors : sum local = 5.69132e-08, global = 6.01561e-09, cumulative = -1.13507e-05
ExecutionTime = 0.09 s  ClockTime = 0 s

Courant Number mean: 0.00124884 max: 0.107249
Interface Courant Number mean: 0 max: 0
deltaT = 0.00139456
Time = 0.00258503

smoothSolver:  Solving for alpha.water, Initial residual = 0.000282087, Final residual = 2.16666e-10, No Iterations 2
Phase-1 volume fraction = 0.130194  Min(alpha.water) = 0  Max(alpha.water) = 1
MULES: Correcting alpha.water
MULES: Correcting alpha.water
Phase-1 volume fraction = 0.130194  Min(alpha.water) = -3.70532e-13  Max(alpha.water) = 1
DICPCG:  Solving for p_rgh, Initial residual = 0.00309454, Final residual = 0.000102387, No Iterations 3
time step continuity errors : sum local = 8.6604e-05, global = 2.08178e-08, cumulative = -1.13299e-05
DICPCG:  Solving for p_rgh, Initial residual = 0.000188322, Final residual = 9.11376e-06, No Iterations 39
time step continuity errors : sum local = 7.71264e-06, global = 1.10661e-07, cumulative = -1.12192e-05
DICPCG:  Solving for p_rgh, Initial residual = 2.9294e-05, Final residual = 9.26979e-08, No Iterations 48
time step continuity errors : sum local = 7.84025e-08, global = 1.38802e-09, cumulative = -1.12179e-05
ExecutionTime = 0.1 s  ClockTime = 0 s

Courant Number mean: 0.00202291 max: 0.0756105
Interface Courant Number mean: 7.08901e-05 max: 0.0756105
deltaT = 0.001635
Time = 0.00422003

smoothSolver:  Solving for alpha.water, Initial residual = 0.000230672, Final residual = 1.52045e-09, No Iterations 2
Phase-1 volume fraction = 0.130194  Min(alpha.water) = 0  Max(alpha.water) = 1
MULES: Correcting alpha.water
MULES: Correcting alpha.water
Phase-1 volume fraction = 0.130194  Min(alpha.water) = -6.68959e-12  Max(alpha.water) = 1
DICPCG:  Solving for p_rgh, Initial residual = 0.00292983, Final residual = 8.69527e-05, No Iterations 2
time step continuity errors : sum local = 9.05592e-05, global = -1.35152e-09, cumulative = -1.12192e-05
DICPCG:  Solving for p_rgh, Initial residual = 9.37447e-05, Final residual = 4.21085e-06, No Iterations 35
time step continuity errors : sum local = 4.38337e-06, global = -3.64634e-07, cumulative = -1.15838e-05
DICPCG:  Solving for p_rgh, Initial residual = 5.37317e-06, Final residual = 8.62312e-08, No Iterations 41
time step continuity errors : sum local = 8.97866e-08, global = 1.86318e-09, cumulative = -1.1582e-05
ExecutionTime = 0.12 s  ClockTime = 0 s

Courant Number mean: 0.00345629 max: 0.0785157
Interface Courant Number mean: 7.96022e-05 max: 0.0785157
deltaT = 0.0019075
Time = 0.00612753

smoothSolver:  Solving for alpha.water, Initial residual = 0.000299161, Final residual = 2.73368e-09, No Iterations 2
Phase-1 volume fraction = 0.130194  Min(alpha.water) = 0  Max(alpha.water) = 1
MULES: Correcting alpha.water
MULES: Correcting alpha.water
Phase-1 volume fraction = 0.130194  Min(alpha.water) = -2.19107e-10  Max(alpha.water) = 1
DICPCG:  Solving for p_rgh, Initial residual = 0.00391286, Final residual = 6.90152e-05, No Iterations 2
time step continuity errors : sum local = 8.94529e-05, global = 5.43022e-09, cumulative = -1.15765e-05
DICPCG:  Solving for p_rgh, Initial residual = 7.21433e-05, Final residual = 3.56939e-06, No Iterations 13
time step continuity errors : sum local = 4.61988e-06, global = -5.70662e-07, cumulative = -1.21472e-05
DICPCG:  Solving for p_rgh, Initial residual = 4.21601e-06, Final residual = 8.66965e-08, No Iterations 40
time step continuity errors : sum local = 1.12235e-07, global = 6.34791e-09, cumulative = -1.21409e-05
ExecutionTime = 0.13 s  ClockTime = 0 s

Courant Number mean: 0.00555579 max: 0.0871951
Interface Courant Number mean: 0.000212286 max: 0.0871951
deltaT = 0.00219362
Time = 0.00832115

smoothSolver:  Solving for alpha.water, Initial residual = 0.000399527, Final residual = 4.2319e-09, No Iterations 2
Phase-1 volume fraction = 0.130194  Min(alpha.water) = 0  Max(alpha.water) = 1
MULES: Correcting alpha.water
MULES: Correcting alpha.water
Phase-1 volume fraction = 0.130194  Min(alpha.water) = -2.51744e-09  Max(alpha.water) = 1
DICPCG:  Solving for p_rgh, Initial residual = 0.0053755, Final residual = 0.000231505, No Iterations 1
time step continuity errors : sum local = 0.000372468, global = 2.4881e-08, cumulative = -1.2116e-05
DICPCG:  Solving for p_rgh, Initial residual = 0.000234158, Final residual = 1.14685e-05, No Iterations 7
time step continuity errors : sum local = 1.84044e-05, global = -1.0969e-08, cumulative = -1.2127e-05
DICPCG:  Solving for p_rgh, Initial residual = 1.32378e-05, Final residual = 7.08608e-08, No Iterations 47
time step continuity errors : sum local = 1.13711e-07, global = 9.8301e-09, cumulative = -1.21171e-05
ExecutionTime = 0.14 s  ClockTime = 0 s

Courant Number mean: 0.00841627 max: 0.0976107
Interface Courant Number mean: 0.000351319 max: 0.0976107
deltaT = 0.00260493
Time = 0.0109261

smoothSolver:  Solving for alpha.water, Initial residual = 0.000559471, Final residual = 7.03845e-09, No Iterations 2
Phase-1 volume fraction = 0.130194  Min(alpha.water) = 0  Max(alpha.water) = 1
MULES: Correcting alpha.water
MULES: Correcting alpha.water
Phase-1 volume fraction = 0.130194  Min(alpha.water) = -2.03405e-08  Max(alpha.water) = 1
DICPCG:  Solving for p_rgh, Initial residual = 0.00776048, Final residual = 0.000233233, No Iterations 1
time step continuity errors : sum local = 0.000504601, global = 3.60956e-08, cumulative = -1.2081e-05
DICPCG:  Solving for p_rgh, Initial residual = 0.000235342, Final residual = 1.08881e-05, No Iterations 8
time step continuity errors : sum local = 2.3459e-05, global = -4.03325e-08, cumulative = -1.21214e-05
DICPCG:  Solving for p_rgh, Initial residual = 1.3654e-05, Final residual = 9.31812e-08, No Iterations 44
time step continuity errors : sum local = 2.0077e-07, global = 2.7089e-08, cumulative = -1.20943e-05
ExecutionTime = 0.15 s  ClockTime = 0 s

Courant Number mean: 0.0128523 max: 0.114971
Interface Courant Number mean: 0.000555316 max: 0.114727
deltaT = 0.00300569
Time = 0.0139318

smoothSolver:  Solving for alpha.water, Initial residual = 0.000768909, Final residual = 1.8642e-12, No Iterations 3
Phase-1 volume fraction = 0.130194  Min(alpha.water) = 0  Max(alpha.water) = 1
MULES: Correcting alpha.water
MULES: Correcting alpha.water
Phase-1 volume fraction = 0.130194  Min(alpha.water) = -1.28135e-07  Max(alpha.water) = 1
DICPCG:  Solving for p_rgh, Initial residual = 0.011022, Final residual = 0.000222727, No Iterations 1
time step continuity errors : sum local = 0.000617176, global = 9.21459e-08, cumulative = -1.20021e-05
DICPCG:  Solving for p_rgh, Initial residual = 0.000224361, Final residual = 8.8296e-06, No Iterations 10
time step continuity errors : sum local = 2.43078e-05, global = 8.16169e-08, cumulative = -1.19205e-05
DICPCG:  Solving for p_rgh, Initial residual = 1.38728e-05, Final residual = 9.34378e-08, No Iterations 43
time step continuity errors : sum local = 2.57309e-07, global = 1.37962e-08, cumulative = -1.19067e-05
ExecutionTime = 0.16 s  ClockTime = 0 s

Courant Number mean: 0.0186262 max: 0.170197
Interface Courant Number mean: 0.000877206 max: 0.144957
deltaT = 0.00360682
Time = 0.0175386

smoothSolver:  Solving for alpha.water, Initial residual = 0.00110165, Final residual = 5.81448e-12, No Iterations 3
Phase-1 volume fraction = 0.130194  Min(alpha.water) = 0  Max(alpha.water) = 1
MULES: Correcting alpha.water
MULES: Correcting alpha.water
Phase-1 volume fraction = 0.130194  Min(alpha.water) = -9.52189e-07  Max(alpha.water) = 1
DICPCG:  Solving for p_rgh, Initial residual = 0.0162969, Final residual = 0.000247756, No Iterations 1
time step continuity errors : sum local = 0.000948682, global = 7.58657e-08, cumulative = -1.18308e-05
DICPCG:  Solving for p_rgh, Initial residual = 0.000252016, Final residual = 1.10419e-05, No Iterations 10
time step continuity errors : sum local = 4.18602e-05, global = 9.93268e-07, cumulative = -1.08376e-05
DICPCG:  Solving for p_rgh, Initial residual = 1.88616e-05, Final residual = 9.36917e-08, No Iterations 43
time step continuity errors : sum local = 3.55327e-07, global = -1.14934e-08, cumulative = -1.08491e-05
ExecutionTime = 0.17 s  ClockTime = 0 s

Courant Number mean: 0.0277834 max: 0.243676
Interface Courant Number mean: 0.00140086 max: 0.211816
deltaT = 0.00405768
Time = 0.0215963

smoothSolver:  Solving for alpha.water, Initial residual = 0.00147899, Final residual = 1.00274e-11, No Iterations 3
Phase-1 volume fraction = 0.130194  Min(alpha.water) = 0  Max(alpha.water) = 1
MULES: Correcting alpha.water
MULES: Correcting alpha.water
Phase-1 volume fraction = 0.130194  Min(alpha.water) = -1.39713e-07  Max(alpha.water) = 1
DICPCG:  Solving for p_rgh, Initial residual = 0.0226306, Final residual = 0.000281608, No Iterations 1
time step continuity errors : sum local = 0.00130617, global = 8.6883e-08, cumulative = -1.07622e-05
DICPCG:  Solving for p_rgh, Initial residual = 0.000289026, Final residual = 1.36119e-05, No Iterations 10
time step continuity errors : sum local = 6.22424e-05, global = 2.66592e-06, cumulative = -8.09627e-06
DICPCG:  Solving for p_rgh, Initial residual = 2.5389e-05, Final residual = 9.05381e-08, No Iterations 44
time step continuity errors : sum local = 4.14227e-07, global = -5.26337e-08, cumulative = -8.1489e-06
ExecutionTime = 0.18 s  ClockTime = 0 s

Courant Number mean: 0.0380036 max: 0.279677
Interface Courant Number mean: 0.00189872 max: 0.277259
deltaT = 0.00473396
Time = 0.0263302

smoothSolver:  Solving for alpha.water, Initial residual = 0.00203594, Final residual = 1.91161e-11, No Iterations 3
Phase-1 volume fraction = 0.130194  Min(alpha.water) = 0  Max(alpha.water) = 1
MULES: Correcting alpha.water
MULES: Correcting alpha.water
Phase-1 volume fraction = 0.130194  Min(alpha.water) = -1.15233e-06  Max(alpha.water) = 1
DICPCG:  Solving for p_rgh, Initial residual = 0.0321113, Final residual = 0.000347636, No Iterations 1
time step continuity errors : sum local = 0.00207378, global = 1.27261e-07, cumulative = -8.02164e-06
DICPCG:  Solving for p_rgh, Initial residual = 0.000367356, Final residual = 1.57928e-05, No Iterations 11
time step continuity errors : sum local = 9.23424e-05, global = 8.02999e-06, cumulative = 8.35219e-09
DICPCG:  Solving for p_rgh, Initial residual = 3.91885e-05, Final residual = 9.95238e-08, No Iterations 28
time step continuity errors : sum local = 5.82582e-07, global = -4.86433e-08, cumulative = -4.02911e-08
ExecutionTime = 0.19 s  ClockTime = 0 s

Courant Number mean: 0.0534186 max: 0.415327
Interface Courant Number mean: 0.00269204 max: 0.373523
deltaT = 0.00473396
Time = 0.0310642

smoothSolver:  Solving for alpha.water, Initial residual = 0.00239149, Final residual = 2.75071e-11, No Iterations 3
Phase-1 volume fraction = 0.130194  Min(alpha.water) = 0  Max(alpha.water) = 1
MULES: Correcting alpha.water
MULES: Correcting alpha.water
Phase-1 volume fraction = 0.130194  Min(alpha.water) = -1.69899e-06  Max(alpha.water) = 1
DICPCG:  Solving for p_rgh, Initial residual = 0.0396261, Final residual = 0.000425024, No Iterations 1
time step continuity errors : sum local = 0.00239519, global = 1.55307e-07, cumulative = 1.15016e-07
DICPCG:  Solving for p_rgh, Initial residual = 0.000451349, Final residual = 1.99601e-05, No Iterations 11
time step continuity errors : sum local = 0.000109763, global = 1.02004e-05, cumulative = 1.03154e-05
DICPCG:  Solving for p_rgh, Initial residual = 4.92e-05, Final residual = 8.81811e-08, No Iterations 30
time step continuity errors : sum local = 4.85629e-07, global = 2.53895e-09, cumulative = 1.03179e-05
ExecutionTime = 0.21 s  ClockTime = 0 s

Courant Number mean: 0.0624477 max: 0.472591
Interface Courant Number mean: 0.00327336 max: 0.42491
deltaT = 0.00473396
Time = 0.0357981

smoothSolver:  Solving for alpha.water, Initial residual = 0.0027759, Final residual = 4.72817e-11, No Iterations 3
Phase-1 volume fraction = 0.130194  Min(alpha.water) = 0  Max(alpha.water) = 1
MULES: Correcting alpha.water
MULES: Correcting alpha.water
Phase-1 volume fraction = 0.130194  Min(alpha.water) = -3.32723e-06  Max(alpha.water) = 1
DICPCG:  Solving for p_rgh, Initial residual = 0.0467545, Final residual = 0.000381952, No Iterations 1
time step continuity errors : sum local = 0.00202292, global = 2.11775e-07, cumulative = 1.05297e-05
DICPCG:  Solving for p_rgh, Initial residual = 0.000417084, Final residual = 1.86584e-05, No Iterations 13
time step continuity errors : sum local = 9.5804e-05, global = 6.65647e-06, cumulative = 1.71862e-05
DICPCG:  Solving for p_rgh, Initial residual = 5.30265e-05, Final residual = 9.42541e-08, No Iterations 50
time step continuity errors : sum local = 4.85067e-07, global = -2.44314e-08, cumulative = 1.71617e-05
ExecutionTime = 0.22 s  ClockTime = 0 s

Courant Number mean: 0.0714387 max: 0.526766
Interface Courant Number mean: 0.00389647 max: 0.500985
deltaT = 0.00473396
Time = 0.0405321

smoothSolver:  Solving for alpha.water, Initial residual = 0.00314204, Final residual = 2.14393e-10, No Iterations 3
Phase-1 volume fraction = 0.130194  Min(alpha.water) = 0  Max(alpha.water) = 1
MULES: Correcting alpha.water
MULES: Correcting alpha.water
Phase-1 volume fraction = 0.130194  Min(alpha.water) = -1.33327e-06  Max(alpha.water) = 1
DICPCG:  Solving for p_rgh, Initial residual = 0.052501, Final residual = 0.000447669, No Iterations 1
time step continuity errors : sum local = 0.00217607, global = 1.68796e-07, cumulative = 1.73305e-05
DICPCG:  Solving for p_rgh, Initial residual = 0.000499512, Final residual = 2.27401e-05, No Iterations 13
time step continuity errors : sum local = 0.000106647, global = 1.21577e-05, cumulative = 2.94883e-05
DICPCG:  Solving for p_rgh, Initial residual = 6.87577e-05, Final residual = 9.26787e-08, No Iterations 51
time step continuity errors : sum local = 4.36148e-07, global = -1.03981e-09, cumulative = 2.94872e-05
ExecutionTime = 0.23 s  ClockTime = 0 s

Courant Number mean: 0.0800635 max: 0.582465
Interface Courant Number mean: 0.00514888 max: 0.538957
deltaT = 0.00473396
Time = 0.045266

smoothSolver:  Solving for alpha.water, Initial residual = 0.00348166, Final residual = 3.02549e-09, No Iterations 3
Phase-1 volume fraction = 0.130194  Min(alpha.water) = 0  Max(alpha.water) = 1
MULES: Correcting alpha.water
MULES: Correcting alpha.water
Phase-1 volume fraction = 0.130194  Min(alpha.water) = -5.53786e-06  Max(alpha.water) = 1
DICPCG:  Solving for p_rgh, Initial residual = 0.0556513, Final residual = 0.000532319, No Iterations 1
time step continuity errors : sum local = 0.00236299, global = 1.31384e-07, cumulative = 2.96186e-05
DICPCG:  Solving for p_rgh, Initial residual = 0.000594846, Final residual = 2.73562e-05, No Iterations 13
time step continuity errors : sum local = 0.000116884, global = 1.56844e-05, cumulative = 4.5303e-05
DICPCG:  Solving for p_rgh, Initial residual = 8.98719e-05, Final residual = 9.95083e-08, No Iterations 53
time step continuity errors : sum local = 4.2722e-07, global = 1.69025e-08, cumulative = 4.53199e-05
ExecutionTime = 0.24 s  ClockTime = 0 s

Courant Number mean: 0.088491 max: 0.618907
Interface Courant Number mean: 0.00629229 max: 0.581205
deltaT = 0.00473396
Time = 0.05

smoothSolver:  Solving for alpha.water, Initial residual = 0.00382919, Final residual = 5.34363e-09, No Iterations 3
Phase-1 volume fraction = 0.130194  Min(alpha.water) = 0  Max(alpha.water) = 1
MULES: Correcting alpha.water
MULES: Correcting alpha.water
Phase-1 volume fraction = 0.130194  Min(alpha.water) = -2.55e-06  Max(alpha.water) = 1
DICPCG:  Solving for p_rgh, Initial residual = 0.0557922, Final residual = 0.000667913, No Iterations 1
time step continuity errors : sum local = 0.00269809, global = 9.02855e-08, cumulative = 4.54102e-05
DICPCG:  Solving for p_rgh, Initial residual = 0.000759213, Final residual = 3.38556e-05, No Iterations 13
time step continuity errors : sum local = 0.00013159, global = 2.03788e-05, cumulative = 6.5789e-05
DICPCG:  Solving for p_rgh, Initial residual = 0.000118269, Final residual = 7.12499e-08, No Iterations 55
time step continuity errors : sum local = 2.78738e-07, global = -7.24443e-09, cumulative = 6.57818e-05
ExecutionTime = 0.27 s  ClockTime = 0 s

Courant Number mean: 0.0969468 max: 0.66392
Interface Courant Number mean: 0.00734449 max: 0.618659
deltaT = 0.005
Time = 0.055

smoothSolver:  Solving for alpha.water, Initial residual = 0.00441805, Final residual = 9.95452e-11, No Iterations 4
Phase-1 volume fraction = 0.130194  Min(alpha.water) = 0  Max(alpha.water) = 1
MULES: Correcting alpha.water
MULES: Correcting alpha.water
Phase-1 volume fraction = 0.130194  Min(alpha.water) = -1.25344e-05  Max(alpha.water) = 1
DICPCG:  Solving for p_rgh, Initial residual = 0.0544687, Final residual = 0.00120675, No Iterations 1
time step continuity errors : sum local = 0.00492926, global = 2.77259e-08, cumulative = 6.58095e-05
DICPCG:  Solving for p_rgh, Initial residual = 0.00136511, Final residual = 5.93913e-05, No Iterations 13
time step continuity errors : sum local = 0.000233884, global = 3.96973e-05, cumulative = 0.000105507
DICPCG:  Solving for p_rgh, Initial residual = 0.000213011, Final residual = 9.96537e-08, No Iterations 56
time step continuity errors : sum local = 3.95955e-07, global = -1.44341e-08, cumulative = 0.000105492
ExecutionTime = 0.28 s  ClockTime = 0 s

Courant Number mean: 0.111787 max: 0.744741
Interface Courant Number mean: 0.00856003 max: 0.698387
deltaT = 0.005625
Time = 0.060625

smoothSolver:  Solving for alpha.water, Initial residual = 0.00542413, Final residual = 3.24017e-10, No Iterations 4
Phase-1 volume fraction = 0.130194  Min(alpha.water) = 0  Max(alpha.water) = 1
MULES: Correcting alpha.water
MULES: Correcting alpha.water
Phase-1 volume fraction = 0.130194  Min(alpha.water) = -1.42508e-05  Max(alpha.water) = 1
DICPCG:  Solving for p_rgh, Initial residual = 0.054359, Final residual = 0.00187035, No Iterations 2
time step continuity errors : sum local = 0.00885565, global = -2.81142e-07, cumulative = 0.000105211
DICPCG:  Solving for p_rgh, Initial residual = 0.00214683, Final residual = 8.86741e-05, No Iterations 14
time step continuity errors : sum local = 0.00040432, global = 7.74222e-05, cumulative = 0.000182633
DICPCG:  Solving for p_rgh, Initial residual = 0.000342333, Final residual = 8.75853e-08, No Iterations 58
time step continuity errors : sum local = 4.06123e-07, global = -2.04352e-08, cumulative = 0.000182613
ExecutionTime = 0.29 s  ClockTime = 0 s

Courant Number mean: 0.137672 max: 0.899345
Interface Courant Number mean: 0.0114224 max: 0.838443
deltaT = 0.005625
Time = 0.06625

smoothSolver:  Solving for alpha.water, Initial residual = 0.00585354, Final residual = 1.96063e-09, No Iterations 4
Phase-1 volume fraction = 0.130194  Min(alpha.water) = 0  Max(alpha.water) = 1
MULES: Correcting alpha.water
MULES: Correcting alpha.water
Phase-1 volume fraction = 0.130194  Min(alpha.water) = -4.5253e-05  Max(alpha.water) = 1
DICPCG:  Solving for p_rgh, Initial residual = 0.0437306, Final residual = 0.00210637, No Iterations 3
time step continuity errors : sum local = 0.00949786, global = -1.58908e-06, cumulative = 0.000181024
DICPCG:  Solving for p_rgh, Initial residual = 0.00240572, Final residual = 0.000111949, No Iterations 16
time step continuity errors : sum local = 0.000492738, global = 9.78543e-05, cumulative = 0.000278878
DICPCG:  Solving for p_rgh, Initial residual = 0.000434972, Final residual = 7.64274e-08, No Iterations 62
time step continuity errors : sum local = 3.43869e-07, global = -1.30506e-08, cumulative = 0.000278865
ExecutionTime = 0.3 s  ClockTime = 0 s

Courant Number mean: 0.149273 max: 0.9632
Interface Courant Number mean: 0.0129962 max: 0.901544
deltaT = 0.005625
Time = 0.071875

smoothSolver:  Solving for alpha.water, Initial residual = 0.00627894, Final residual = 3.73464e-09, No Iterations 4
Phase-1 volume fraction = 0.130194  Min(alpha.water) = 0  Max(alpha.water) = 1
MULES: Correcting alpha.water
MULES: Correcting alpha.water
Phase-1 volume fraction = 0.130194  Min(alpha.water) = -3.54849e-05  Max(alpha.water) = 1
DICPCG:  Solving for p_rgh, Initial residual = 0.0413153, Final residual = 0.00163342, No Iterations 7
time step continuity errors : sum local = 0.00778602, global = 7.9479e-06, cumulative = 0.000286813
DICPCG:  Solving for p_rgh, Initial residual = 0.00183628, Final residual = 8.52231e-05, No Iterations 23
time step continuity errors : sum local = 0.000400268, global = 6.12248e-05, cumulative = 0.000348038
DICPCG:  Solving for p_rgh, Initial residual = 0.000254888, Final residual = 9.23471e-08, No Iterations 61
time step continuity errors : sum local = 4.37488e-07, global = -1.50484e-09, cumulative = 0.000348036
ExecutionTime = 0.31 s  ClockTime = 0 s

Courant Number mean: 0.160431 max: 1.18551
Interface Courant Number mean: 0.0146692 max: 0.977047
deltaT = 0.0046875
Time = 0.0765625

smoothSolver:  Solving for alpha.water, Initial residual = 0.00560502, Final residual = 2.09718e-09, No Iterations 4
Phase-1 volume fraction = 0.130194  Min(alpha.water) = -6.94806e-16  Max(alpha.water) = 1
MULES: Correcting alpha.water
MULES: Correcting alpha.water
Phase-1 volume fraction = 0.130194  Min(alpha.water) = -2.89754e-05  Max(alpha.water) = 1
DICPCG:  Solving for p_rgh, Initial residual = 0.0652176, Final residual = 0.00291833, No Iterations 6
time step continuity errors : sum local = 0.0113661, global = 5.15139e-06, cumulative = 0.000353188
DICPCG:  Solving for p_rgh, Initial residual = 0.00325408, Final residual = 0.000136195, No Iterations 25
time step continuity errors : sum local = 0.000508471, global = 9.63358e-05, cumulative = 0.000449524
DICPCG:  Solving for p_rgh, Initial residual = 0.000384337, Final residual = 8.57882e-08, No Iterations 65
time step continuity errors : sum local = 3.20702e-07, global = 3.84405e-09, cumulative = 0.000449527
ExecutionTime = 0.33 s  ClockTime = 0 s

Courant Number mean: 0.141221 max: 1.16768
Interface Courant Number mean: 0.013123 max: 0.828829
deltaT = 0.00390625
Time = 0.0804688

smoothSolver:  Solving for alpha.water, Initial residual = 0.00494697, Final residual = 7.62764e-10, No Iterations 4
Phase-1 volume fraction = 0.130194  Min(alpha.water) = -9.64611e-17  Max(alpha.water) = 1
MULES: Correcting alpha.water
MULES: Correcting alpha.water
Phase-1 volume fraction = 0.130194  Min(alpha.water) = -1.89253e-05  Max(alpha.water) = 1
DICPCG:  Solving for p_rgh, Initial residual = 0.0487802, Final residual = 0.0021294, No Iterations 6
time step continuity errors : sum local = 0.00535074, global = 1.08535e-06, cumulative = 0.000450613
DICPCG:  Solving for p_rgh, Initial residual = 0.00234085, Final residual = 0.000116161, No Iterations 24
time step continuity errors : sum local = 0.000283679, global = 4.51007e-05, cumulative = 0.000495713
DICPCG:  Solving for p_rgh, Initial residual = 0.000276323, Final residual = 9.90587e-08, No Iterations 62
time step continuity errors : sum local = 2.42792e-07, global = 7.04156e-09, cumulative = 0.000495721
ExecutionTime = 0.34 s  ClockTime = 0 s

Courant Number mean: 0.12291 max: 1.12778
Interface Courant Number mean: 0.0112248 max: 0.750962
deltaT = 0.00325521
Time = 0.083724

smoothSolver:  Solving for alpha.water, Initial residual = 0.00430534, Final residual = 2.73552e-10, No Iterations 4
Phase-1 volume fraction = 0.130194  Min(alpha.water) = -6.83544e-15  Max(alpha.water) = 1
MULES: Correcting alpha.water
MULES: Correcting alpha.water
Phase-1 volume fraction = 0.130194  Min(alpha.water) = -3.39102e-05  Max(alpha.water) = 1
DICPCG:  Solving for p_rgh, Initial residual = 0.0372315, Final residual = 0.00166925, No Iterations 5
time step continuity errors : sum local = 0.00281548, global = -5.14773e-07, cumulative = 0.000495206
DICPCG:  Solving for p_rgh, Initial residual = 0.00183588, Final residual = 8.53665e-05, No Iterations 24
time step continuity errors : sum local = 0.000141004, global = 2.30061e-05, cumulative = 0.000518212
DICPCG:  Solving for p_rgh, Initial residual = 0.000235846, Final residual = 7.90688e-08, No Iterations 62
time step continuity errors : sum local = 1.3147e-07, global = 1.92616e-09, cumulative = 0.000518214
ExecutionTime = 0.35 s  ClockTime = 0 s

Courant Number mean: 0.105785 max: 1.07874
Interface Courant Number mean: 0.00958269 max: 0.633685
deltaT = 0.00271267
Time = 0.0864366

smoothSolver:  Solving for alpha.water, Initial residual = 0.00370874, Final residual = 7.91669e-09, No Iterations 3
Phase-1 volume fraction = 0.130194  Min(alpha.water) = -4.92687e-15  Max(alpha.water) = 1
MULES: Correcting alpha.water
MULES: Correcting alpha.water
Phase-1 volume fraction = 0.130194  Min(alpha.water) = -1.90616e-06  Max(alpha.water) = 1
DICPCG:  Solving for p_rgh, Initial residual = 0.0311766, Final residual = 0.00136251, No Iterations 4
time step continuity errors : sum local = 0.00162453, global = -3.64682e-07, cumulative = 0.000517849
DICPCG:  Solving for p_rgh, Initial residual = 0.00150159, Final residual = 6.7084e-05, No Iterations 23
time step continuity errors : sum local = 7.84801e-05, global = 9.25311e-06, cumulative = 0.000527102
DICPCG:  Solving for p_rgh, Initial residual = 0.000175853, Final residual = 9.5659e-08, No Iterations 58
time step continuity errors : sum local = 1.12762e-07, global = -1.27637e-08, cumulative = 0.000527089
ExecutionTime = 0.37 s  ClockTime = 0 s

Courant Number mean: 0.0904086 max: 1.01233
Interface Courant Number mean: 0.00807645 max: 0.637002
deltaT = 0.00226056
Time = 0.0886972

smoothSolver:  Solving for alpha.water, Initial residual = 0.00317619, Final residual = 2.8348e-09, No Iterations 3
Phase-1 volume fraction = 0.130194  Min(alpha.water) = -4.15804e-15  Max(alpha.water) = 1
MULES: Correcting alpha.water
MULES: Correcting alpha.water
Phase-1 volume fraction = 0.130194  Min(alpha.water) = -2.9972e-08  Max(alpha.water) = 1
DICPCG:  Solving for p_rgh, Initial residual = 0.0280221, Final residual = 0.00136466, No Iterations 2
time step continuity errors : sum local = 0.00118121, global = -1.58325e-07, cumulative = 0.000526931
DICPCG:  Solving for p_rgh, Initial residual = 0.00151612, Final residual = 6.55926e-05, No Iterations 21
time step continuity errors : sum local = 5.56515e-05, global = 9.82744e-06, cumulative = 0.000536759
DICPCG:  Solving for p_rgh, Initial residual = 0.000181711, Final residual = 8.83375e-08, No Iterations 60
time step continuity errors : sum local = 7.57223e-08, global = -6.11426e-09, cumulative = 0.000536752
ExecutionTime = 0.38 s  ClockTime = 0 s

Courant Number mean: 0.0768585 max: 0.920028
Interface Courant Number mean: 0.00664194 max: 0.541242
deltaT = 0.00226056
Time = 0.0909578

smoothSolver:  Solving for alpha.water, Initial residual = 0.00326165, Final residual = 2.82079e-09, No Iterations 3
Phase-1 volume fraction = 0.130194  Min(alpha.water) = -3.50579e-15  Max(alpha.water) = 1
MULES: Correcting alpha.water
MULES: Correcting alpha.water
Phase-1 volume fraction = 0.130194  Min(alpha.water) = -7.52512e-08  Max(alpha.water) = 1
DICPCG:  Solving for p_rgh, Initial residual = 0.0302423, Final residual = 0.000560455, No Iterations 2
time step continuity errors : sum local = 0.000516587, global = -1.37017e-07, cumulative = 0.000536615
DICPCG:  Solving for p_rgh, Initial residual = 0.000643256, Final residual = 3.03357e-05, No Iterations 19
time step continuity errors : sum local = 2.72914e-05, global = 5.23633e-06, cumulative = 0.000541852
DICPCG:  Solving for p_rgh, Initial residual = 8.58695e-05, Final residual = 8.38298e-08, No Iterations 58
time step continuity errors : sum local = 7.6159e-08, global = -3.19446e-09, cumulative = 0.000541849
ExecutionTime = 0.39 s  ClockTime = 0 s

Courant Number mean: 0.078414 max: 0.987705
Interface Courant Number mean: 0.00669078 max: 0.549952
deltaT = 0.00226056
Time = 0.0932183

smoothSolver:  Solving for alpha.water, Initial residual = 0.00335373, Final residual = 2.96239e-09, No Iterations 3
Phase-1 volume fraction = 0.130194  Min(alpha.water) = -2.96601e-15  Max(alpha.water) = 1
MULES: Correcting alpha.water
MULES: Correcting alpha.water
Phase-1 volume fraction = 0.130194  Min(alpha.water) = -1.72343e-07  Max(alpha.water) = 1
DICPCG:  Solving for p_rgh, Initial residual = 0.0389181, Final residual = 0.000607446, No Iterations 1
time step continuity errors : sum local = 0.000616602, global = -4.99842e-08, cumulative = 0.000541799
DICPCG:  Solving for p_rgh, Initial residual = 0.000674572, Final residual = 3.13393e-05, No Iterations 15
time step continuity errors : sum local = 3.0707e-05, global = 1.79186e-06, cumulative = 0.00054359
DICPCG:  Solving for p_rgh, Initial residual = 7.6291e-05, Final residual = 9.92173e-08, No Iterations 54
time step continuity errors : sum local = 9.80693e-08, global = -1.19033e-08, cumulative = 0.000543579
ExecutionTime = 0.41 s  ClockTime = 0 s

Courant Number mean: 0.0800732 max: 1.0505
Interface Courant Number mean: 0.00718693 max: 0.555094
deltaT = 0.00169542
Time = 0.0949137

smoothSolver:  Solving for alpha.water, Initial residual = 0.00258909, Final residual = 6.19669e-10, No Iterations 3
Phase-1 volume fraction = 0.130194  Min(alpha.water) = -2.65656e-15  Max(alpha.water) = 1
MULES: Correcting alpha.water
MULES: Correcting alpha.water
Phase-1 volume fraction = 0.130194  Min(alpha.water) = -7.91105e-14  Max(alpha.water) = 1
DICPCG:  Solving for p_rgh, Initial residual = 0.0288106, Final residual = 0.000550491, No Iterations 1
time step continuity errors : sum local = 0.000304844, global = -2.17949e-08, cumulative = 0.000543557
DICPCG:  Solving for p_rgh, Initial residual = 0.000599784, Final residual = 2.35606e-05, No Iterations 16
time step continuity errors : sum local = 1.27174e-05, global = 3.71172e-07, cumulative = 0.000543928
DICPCG:  Solving for p_rgh, Initial residual = 5.267e-05, Final residual = 8.73919e-08, No Iterations 54
time step continuity errors : sum local = 4.74866e-08, global = -5.99872e-09, cumulative = 0.000543922
ExecutionTime = 0.42 s  ClockTime = 0 s

Courant Number mean: 0.0610015 max: 0.817916
Interface Courant Number mean: 0.00536515 max: 0.420443
deltaT = 0.00169542
Time = 0.0966092

smoothSolver:  Solving for alpha.water, Initial residual = 0.00263635, Final residual = 6.24052e-10, No Iterations 3
Phase-1 volume fraction = 0.130194  Min(alpha.water) = -2.3757e-15  Max(alpha.water) = 1
MULES: Correcting alpha.water
MULES: Correcting alpha.water
Phase-1 volume fraction = 0.130194  Min(alpha.water) = -5.17437e-14  Max(alpha.water) = 1
DICPCG:  Solving for p_rgh, Initial residual = 0.0280848, Final residual = 0.000667369, No Iterations 1
time step continuity errors : sum local = 0.000354467, global = 2.64653e-09, cumulative = 0.000543925
DICPCG:  Solving for p_rgh, Initial residual = 0.000725112, Final residual = 3.33056e-05, No Iterations 14
time step continuity errors : sum local = 1.72601e-05, global = 1.65699e-06, cumulative = 0.000545582
DICPCG:  Solving for p_rgh, Initial residual = 6.59511e-05, Final residual = 8.87728e-08, No Iterations 52
time step continuity errors : sum local = 4.62843e-08, global = 3.34182e-09, cumulative = 0.000545585
ExecutionTime = 0.43 s  ClockTime = 0 s

Courant Number mean: 0.0619484 max: 0.843288
Interface Courant Number mean: 0.00541738 max: 0.751142
deltaT = 0.00169542
Time = 0.0983046

smoothSolver:  Solving for alpha.water, Initial residual = 0.00269018, Final residual = 6.45737e-10, No Iterations 3
Phase-1 volume fraction = 0.130194  Min(alpha.water) = -2.12264e-15  Max(alpha.water) = 1
MULES: Correcting alpha.water
MULES: Correcting alpha.water
Phase-1 volume fraction = 0.130194  Min(alpha.water) = -3.69769e-11  Max(alpha.water) = 1
DICPCG:  Solving for p_rgh, Initial residual = 0.0258387, Final residual = 0.000706889, No Iterations 1
time step continuity errors : sum local = 0.000361255, global = 3.37655e-09, cumulative = 0.000545588
DICPCG:  Solving for p_rgh, Initial residual = 0.00076584, Final residual = 3.51545e-05, No Iterations 13
time step continuity errors : sum local = 1.75985e-05, global = 1.41639e-06, cumulative = 0.000547005
DICPCG:  Solving for p_rgh, Initial residual = 6.76589e-05, Final residual = 9.6911e-08, No Iterations 53
time step continuity errors : sum local = 4.87941e-08, global = 2.51851e-09, cumulative = 0.000547007
ExecutionTime = 0.44 s  ClockTime = 0 s

Courant Number mean: 0.0628802 max: 0.860253
Interface Courant Number mean: 0.00526738 max: 0.811303
deltaT = 0.00169542
Time = 0.1

smoothSolver:  Solving for alpha.water, Initial residual = 0.00273938, Final residual = 6.93165e-10, No Iterations 3
Phase-1 volume fraction = 0.130194  Min(alpha.water) = -1.89472e-15  Max(alpha.water) = 1
MULES: Correcting alpha.water
MULES: Correcting alpha.water
Phase-1 volume fraction = 0.130194  Min(alpha.water) = -2.58947e-09  Max(alpha.water) = 1
DICPCG:  Solving for p_rgh, Initial residual = 0.0267059, Final residual = 0.000644688, No Iterations 1
time step continuity errors : sum local = 0.000332734, global = -4.69239e-09, cumulative = 0.000547003
DICPCG:  Solving for p_rgh, Initial residual = 0.000709918, Final residual = 3.4951e-05, No Iterations 12
time step continuity errors : sum local = 1.76393e-05, global = 1.10605e-06, cumulative = 0.000548109
DICPCG:  Solving for p_rgh, Initial residual = 7.19317e-05, Final residual = 8.46615e-08, No Iterations 50
time step continuity errors : sum local = 4.29753e-08, global = 8.97443e-10, cumulative = 0.000548109
ExecutionTime = 0.46 s  ClockTime = 0 s

Courant Number mean: 0.0637544 max: 0.858266
Interface Courant Number mean: 0.00549648 max: 0.796371
deltaT = 0.00185185
Time = 0.101852

smoothSolver:  Solving for alpha.water, Initial residual = 0.00303886, Final residual = 1.30066e-09, No Iterations 3
Phase-1 volume fraction = 0.130194  Min(alpha.water) = -1.66846e-15  Max(alpha.water) = 1
MULES: Correcting alpha.water
MULES: Correcting alpha.water
Phase-1 volume fraction = 0.130194  Min(alpha.water) = -2.88412e-09  Max(alpha.water) = 1
DICPCG:  Solving for p_rgh, Initial residual = 0.0290599, Final residual = 0.000709267, No Iterations 1
time step continuity errors : sum local = 0.000431701, global = -5.52395e-09, cumulative = 0.000548104
DICPCG:  Solving for p_rgh, Initial residual = 0.000795032, Final residual = 3.85875e-05, No Iterations 12
time step continuity errors : sum local = 2.29106e-05, global = 1.54795e-06, cumulative = 0.000549652
DICPCG:  Solving for p_rgh, Initial residual = 7.82427e-05, Final residual = 9.58494e-08, No Iterations 48
time step continuity errors : sum local = 5.73155e-08, global = -1.37761e-09, cumulative = 0.000549651
ExecutionTime = 0.47 s  ClockTime = 0 s

Courant Number mean: 0.0706617 max: 0.925806
Interface Courant Number mean: 0.00621635 max: 0.925806
deltaT = 0.00192593
Time = 0.103778

smoothSolver:  Solving for alpha.water, Initial residual = 0.0032159, Final residual = 1.8757e-09, No Iterations 3
Phase-1 volume fraction = 0.130194  Min(alpha.water) = -1.45538e-15  Max(alpha.water) = 1
MULES: Correcting alpha.water
MULES: Correcting alpha.water
Phase-1 volume fraction = 0.130194  Min(alpha.water) = -4.78309e-10  Max(alpha.water) = 1
DICPCG:  Solving for p_rgh, Initial residual = 0.0286772, Final residual = 0.00080662, No Iterations 1
time step continuity errors : sum local = 0.000524693, global = -1.40938e-08, cumulative = 0.000549636
DICPCG:  Solving for p_rgh, Initial residual = 0.000897856, Final residual = 4.39993e-05, No Iterations 9
time step continuity errors : sum local = 2.79487e-05, global = 2.32881e-07, cumulative = 0.000549869
DICPCG:  Solving for p_rgh, Initial residual = 9.39051e-05, Final residual = 9.86685e-08, No Iterations 54
time step continuity errors : sum local = 6.29892e-08, global = -3.24325e-09, cumulative = 0.000549866
ExecutionTime = 0.48 s  ClockTime = 0 s

Courant Number mean: 0.0745518 max: 0.93671
Interface Courant Number mean: 0.00602696 max: 0.93671
deltaT = 0.00200966
Time = 0.105787

smoothSolver:  Solving for alpha.water, Initial residual = 0.00343422, Final residual = 2.66999e-09, No Iterations 3
Phase-1 volume fraction = 0.130194  Min(alpha.water) = -1.25448e-15  Max(alpha.water) = 1
MULES: Correcting alpha.water
MULES: Correcting alpha.water
Phase-1 volume fraction = 0.130194  Min(alpha.water) = -4.8795e-08  Max(alpha.water) = 1
DICPCG:  Solving for p_rgh, Initial residual = 0.0278537, Final residual = 0.000897766, No Iterations 1
time step continuity errors : sum local = 0.000631658, global = 2.78116e-10, cumulative = 0.000549866
DICPCG:  Solving for p_rgh, Initial residual = 0.00101006, Final residual = 4.09787e-05, No Iterations 13
time step continuity errors : sum local = 2.81758e-05, global = 2.39151e-06, cumulative = 0.000552258
DICPCG:  Solving for p_rgh, Initial residual = 0.000102138, Final residual = 7.86062e-08, No Iterations 53
time step continuity errors : sum local = 5.44686e-08, global = -2.65876e-09, cumulative = 0.000552255
ExecutionTime = 0.5 s  ClockTime = 0 s

Courant Number mean: 0.0789892 max: 0.960178
Interface Courant Number mean: 0.00714708 max: 0.960178
deltaT = 0.00200966
Time = 0.107797

smoothSolver:  Solving for alpha.water, Initial residual = 0.003499, Final residual = 2.85274e-09, No Iterations 3
Phase-1 volume fraction = 0.130194  Min(alpha.water) = -1.07543e-15  Max(alpha.water) = 1
MULES: Correcting alpha.water
MULES: Correcting alpha.water
Phase-1 volume fraction = 0.130194  Min(alpha.water) = -6.46066e-09  Max(alpha.water) = 1
DICPCG:  Solving for p_rgh, Initial residual = 0.0280437, Final residual = 0.000853112, No Iterations 1
time step continuity errors : sum local = 0.000618423, global = -1.8791e-08, cumulative = 0.000552236
DICPCG:  Solving for p_rgh, Initial residual = 0.000969003, Final residual = 4.52982e-05, No Iterations 13
time step continuity errors : sum local = 3.21242e-05, global = 2.20214e-06, cumulative = 0.000554439
DICPCG:  Solving for p_rgh, Initial residual = 0.00011748, Final residual = 7.57466e-08, No Iterations 55
time step continuity errors : sum local = 5.41419e-08, global = -1.49672e-09, cumulative = 0.000554437
ExecutionTime = 0.51 s  ClockTime = 0 s

Courant Number mean: 0.0802497 max: 0.983609
Interface Courant Number mean: 0.00715642 max: 0.983609
deltaT = 0.00200966
Time = 0.109807

smoothSolver:  Solving for alpha.water, Initial residual = 0.00356724, Final residual = 3.19546e-09, No Iterations 3
Phase-1 volume fraction = 0.130194  Min(alpha.water) = -9.16325e-16  Max(alpha.water) = 1
MULES: Correcting alpha.water
MULES: Correcting alpha.water
Phase-1 volume fraction = 0.130194  Min(alpha.water) = -1.81511e-08  Max(alpha.water) = 1
DICPCG:  Solving for p_rgh, Initial residual = 0.0330083, Final residual = 0.0006388, No Iterations 1
time step continuity errors : sum local = 0.000500662, global = -1.61442e-08, cumulative = 0.000554421
DICPCG:  Solving for p_rgh, Initial residual = 0.000752999, Final residual = 3.69607e-05, No Iterations 14
time step continuity errors : sum local = 2.80999e-05, global = 1.86302e-06, cumulative = 0.000556284
DICPCG:  Solving for p_rgh, Initial residual = 0.000107382, Final residual = 8.64634e-08, No Iterations 55
time step continuity errors : sum local = 6.6272e-08, global = -5.09876e-09, cumulative = 0.000556279
ExecutionTime = 0.52 s  ClockTime = 0 s

Courant Number mean: 0.0815292 max: 1.01952
Interface Courant Number mean: 0.00727163 max: 0.862302
deltaT = 0.00191396
Time = 0.111721

smoothSolver:  Solving for alpha.water, Initial residual = 0.00342724, Final residual = 2.66723e-09, No Iterations 3
Phase-1 volume fraction = 0.130194  Min(alpha.water) = -8.28455e-16  Max(alpha.water) = 1
MULES: Correcting alpha.water
MULES: Correcting alpha.water
Phase-1 volume fraction = 0.130194  Min(alpha.water) = -1.11145e-07  Max(alpha.water) = 1
DICPCG:  Solving for p_rgh, Initial residual = 0.0325734, Final residual = 0.000647126, No Iterations 1
time step continuity errors : sum local = 0.000456646, global = -1.52425e-08, cumulative = 0.000556264
DICPCG:  Solving for p_rgh, Initial residual = 0.000746681, Final residual = 3.22719e-05, No Iterations 14
time step continuity errors : sum local = 2.21227e-05, global = 1.958e-06, cumulative = 0.000558222
DICPCG:  Solving for p_rgh, Initial residual = 8.86022e-05, Final residual = 8.32816e-08, No Iterations 47
time step continuity errors : sum local = 5.75274e-08, global = -1.74909e-09, cumulative = 0.00055822
ExecutionTime = 0.53 s  ClockTime = 0 s

Courant Number mean: 0.0787573 max: 1.01294
Interface Courant Number mean: 0.00734561 max: 0.955052
deltaT = 0.00182282
Time = 0.113544

smoothSolver:  Solving for alpha.water, Initial residual = 0.00331537, Final residual = 2.1368e-09, No Iterations 3
Phase-1 volume fraction = 0.130194  Min(alpha.water) = -7.68669e-16  Max(alpha.water) = 1
MULES: Correcting alpha.water
MULES: Correcting alpha.water
Phase-1 volume fraction = 0.130194  Min(alpha.water) = -5.34774e-09  Max(alpha.water) = 1
DICPCG:  Solving for p_rgh, Initial residual = 0.03114, Final residual = 0.000559354, No Iterations 1
time step continuity errors : sum local = 0.000353377, global = -9.48234e-09, cumulative = 0.00055821
DICPCG:  Solving for p_rgh, Initial residual = 0.000641295, Final residual = 2.38645e-05, No Iterations 14
time step continuity errors : sum local = 1.46562e-05, global = 1.62759e-06, cumulative = 0.000559838
DICPCG:  Solving for p_rgh, Initial residual = 7.65326e-05, Final residual = 8.35915e-08, No Iterations 52
time step continuity errors : sum local = 5.17204e-08, global = -3.85787e-09, cumulative = 0.000559834
ExecutionTime = 0.55 s  ClockTime = 0 s

Courant Number mean: 0.0758724 max: 1.0264
Interface Courant Number mean: 0.00632288 max: 0.958134
deltaT = 0.00173602
Time = 0.11528

smoothSolver:  Solving for alpha.water, Initial residual = 0.00323972, Final residual = 1.7026e-09, No Iterations 3
Phase-1 volume fraction = 0.130194  Min(alpha.water) = -7.12874e-16  Max(alpha.water) = 1
MULES: Correcting alpha.water
MULES: Correcting alpha.water
Phase-1 volume fraction = 0.130194  Min(alpha.water) = -4.35394e-09  Max(alpha.water) = 1
DICPCG:  Solving for p_rgh, Initial residual = 0.0274022, Final residual = 0.000579951, No Iterations 1
time step continuity errors : sum local = 0.000322141, global = -2.22123e-08, cumulative = 0.000559812
DICPCG:  Solving for p_rgh, Initial residual = 0.000667444, Final residual = 2.92012e-05, No Iterations 13
time step continuity errors : sum local = 1.58254e-05, global = 1.2506e-06, cumulative = 0.000561062
DICPCG:  Solving for p_rgh, Initial residual = 8.35677e-05, Final residual = 9.8288e-08, No Iterations 51
time step continuity errors : sum local = 5.36876e-08, global = -4.92313e-09, cumulative = 0.000561058
ExecutionTime = 0.56 s  ClockTime = 0 s

Courant Number mean: 0.0730071 max: 1.04421
Interface Courant Number mean: 0.00648712 max: 0.952553
deltaT = 0.00165335
Time = 0.116933

smoothSolver:  Solving for alpha.water, Initial residual = 0.00314023, Final residual = 1.40107e-09, No Iterations 3
Phase-1 volume fraction = 0.130194  Min(alpha.water) = -6.61155e-16  Max(alpha.water) = 1
MULES: Correcting alpha.water
MULES: Correcting alpha.water
Phase-1 volume fraction = 0.130194  Min(alpha.water) = -6.10237e-09  Max(alpha.water) = 1
DICPCG:  Solving for p_rgh, Initial residual = 0.0259368, Final residual = 0.000598178, No Iterations 1
time step continuity errors : sum local = 0.000297106, global = -1.57205e-08, cumulative = 0.000561042
DICPCG:  Solving for p_rgh, Initial residual = 0.000689036, Final residual = 2.66393e-05, No Iterations 13
time step continuity errors : sum local = 1.29419e-05, global = 1.17617e-06, cumulative = 0.000562218
DICPCG:  Solving for p_rgh, Initial residual = 7.82757e-05, Final residual = 9.80735e-08, No Iterations 51
time step continuity errors : sum local = 4.80078e-08, global = -3.68445e-09, cumulative = 0.000562214
ExecutionTime = 0.57 s  ClockTime = 0 s

Courant Number mean: 0.0701694 max: 1.0482
Interface Courant Number mean: 0.00622923 max: 0.940245
deltaT = 0.00157462
Time = 0.118508

smoothSolver:  Solving for alpha.water, Initial residual = 0.00303079, Final residual = 1.11416e-09, No Iterations 3
Phase-1 volume fraction = 0.130194  Min(alpha.water) = -6.13424e-16  Max(alpha.water) = 1
MULES: Correcting alpha.water
MULES: Correcting alpha.water
Phase-1 volume fraction = 0.130194  Min(alpha.water) = -9.8179e-09  Max(alpha.water) = 1
DICPCG:  Solving for p_rgh, Initial residual = 0.0246217, Final residual = 0.000616562, No Iterations 1
time step continuity errors : sum local = 0.000277308, global = -1.13381e-08, cumulative = 0.000562203
DICPCG:  Solving for p_rgh, Initial residual = 0.000711057, Final residual = 2.67503e-05, No Iterations 13
time step continuity errors : sum local = 1.17868e-05, global = 1.06722e-06, cumulative = 0.00056327
DICPCG:  Solving for p_rgh, Initial residual = 7.7282e-05, Final residual = 9.46153e-08, No Iterations 51
time step continuity errors : sum local = 4.20152e-08, global = -3.09478e-09, cumulative = 0.000563267
ExecutionTime = 0.59 s  ClockTime = 0 s

Courant Number mean: 0.0673921 max: 1.04305
Interface Courant Number mean: 0.00586774 max: 0.921151
deltaT = 0.00149964
Time = 0.120007

smoothSolver:  Solving for alpha.water, Initial residual = 0.00291314, Final residual = 8.68422e-10, No Iterations 3
Phase-1 volume fraction = 0.130194  Min(alpha.water) = -5.69464e-16  Max(alpha.water) = 1
MULES: Correcting alpha.water
MULES: Correcting alpha.water
Phase-1 volume fraction = 0.130194  Min(alpha.water) = -1.56888e-08  Max(alpha.water) = 1
DICPCG:  Solving for p_rgh, Initial residual = 0.0231444, Final residual = 0.000635987, No Iterations 1
time step continuity errors : sum local = 0.000260034, global = -7.7569e-09, cumulative = 0.000563259
DICPCG:  Solving for p_rgh, Initial residual = 0.000724213, Final residual = 3.56338e-05, No Iterations 9
time step continuity errors : sum local = 1.43077e-05, global = 7.70851e-08, cumulative = 0.000563336
DICPCG:  Solving for p_rgh, Initial residual = 7.84752e-05, Final residual = 6.86633e-08, No Iterations 53
time step continuity errors : sum local = 2.77121e-08, global = -1.9312e-09, cumulative = 0.000563334
ExecutionTime = 0.6 s  ClockTime = 0 s

Courant Number mean: 0.0646973 max: 1.03277
Interface Courant Number mean: 0.00549253 max: 0.896084
deltaT = 0.00142823
Time = 0.121435

smoothSolver:  Solving for alpha.water, Initial residual = 0.0027932, Final residual = 6.6541e-10, No Iterations 3
Phase-1 volume fraction = 0.130194  Min(alpha.water) = -5.29017e-16  Max(alpha.water) = 1
MULES: Correcting alpha.water
MULES: Correcting alpha.water
Phase-1 volume fraction = 0.130194  Min(alpha.water) = -5.24188e-09  Max(alpha.water) = 1
DICPCG:  Solving for p_rgh, Initial residual = 0.02147, Final residual = 0.000592386, No Iterations 1
time step continuity errors : sum local = 0.000222332, global = 7.83777e-10, cumulative = 0.000563335
DICPCG:  Solving for p_rgh, Initial residual = 0.000671914, Final residual = 3.28302e-05, No Iterations 12
time step continuity errors : sum local = 1.21163e-05, global = 5.8333e-07, cumulative = 0.000563919
DICPCG:  Solving for p_rgh, Initial residual = 7.65322e-05, Final residual = 8.54128e-08, No Iterations 51
time step continuity errors : sum local = 3.17377e-08, global = -1.17598e-09, cumulative = 0.000563917
ExecutionTime = 0.61 s  ClockTime = 0 s

Courant Number mean: 0.0621295 max: 1.02053
Interface Courant Number mean: 0.00523373 max: 0.864226
deltaT = 0.00136022
Time = 0.122796

smoothSolver:  Solving for alpha.water, Initial residual = 0.00268107, Final residual = 5.05437e-10, No Iterations 3
Phase-1 volume fraction = 0.130194  Min(alpha.water) = -4.91784e-16  Max(alpha.water) = 1
MULES: Correcting alpha.water
MULES: Correcting alpha.water
Phase-1 volume fraction = 0.130194  Min(alpha.water) = -5.13655e-09  Max(alpha.water) = 1
DICPCG:  Solving for p_rgh, Initial residual = 0.020965, Final residual = 0.000610178, No Iterations 1
time step continuity errors : sum local = 0.000211236, global = -7.82694e-10, cumulative = 0.000563917
DICPCG:  Solving for p_rgh, Initial residual = 0.0006972, Final residual = 3.10148e-05, No Iterations 9
time step continuity errors : sum local = 1.05704e-05, global = 5.93858e-08, cumulative = 0.000563976
DICPCG:  Solving for p_rgh, Initial residual = 7.47571e-05, Final residual = 8.39339e-08, No Iterations 53
time step continuity errors : sum local = 2.87508e-08, global = -1.16252e-09, cumulative = 0.000563975
ExecutionTime = 0.62 s  ClockTime = 0 s

Courant Number mean: 0.0596339 max: 1.00382
Interface Courant Number mean: 0.00493327 max: 0.943274
deltaT = 0.00129545
Time = 0.124091

smoothSolver:  Solving for alpha.water, Initial residual = 0.00255559, Final residual = 3.91017e-10, No Iterations 3
Phase-1 volume fraction = 0.130194  Min(alpha.water) = -4.5751e-16  Max(alpha.water) = 1
MULES: Correcting alpha.water
MULES: Correcting alpha.water
Phase-1 volume fraction = 0.130194  Min(alpha.water) = -2.88563e-09  Max(alpha.water) = 1
DICPCG:  Solving for p_rgh, Initial residual = 0.0195851, Final residual = 0.000541585, No Iterations 1
time step continuity errors : sum local = 0.000173762, global = -3.27892e-10, cumulative = 0.000563975
DICPCG:  Solving for p_rgh, Initial residual = 0.000648013, Final residual = 3.22338e-05, No Iterations 8
time step continuity errors : sum local = 1.02041e-05, global = 9.34093e-09, cumulative = 0.000563984
DICPCG:  Solving for p_rgh, Initial residual = 7.61344e-05, Final residual = 9.42619e-08, No Iterations 53
time step continuity errors : sum local = 2.9976e-08, global = -3.12301e-10, cumulative = 0.000563984
ExecutionTime = 0.64 s  ClockTime = 0 s

Courant Number mean: 0.0572166 max: 0.975744
Interface Courant Number mean: 0.00460185 max: 0.895299
deltaT = 0.00129545
Time = 0.125387

smoothSolver:  Solving for alpha.water, Initial residual = 0.0025596, Final residual = 4.00843e-10, No Iterations 3
Phase-1 volume fraction = 0.130194  Min(alpha.water) = -4.24377e-16  Max(alpha.water) = 1
MULES: Correcting alpha.water
MULES: Correcting alpha.water
Phase-1 volume fraction = 0.130194  Min(alpha.water) = -4.59608e-09  Max(alpha.water) = 1
DICPCG:  Solving for p_rgh, Initial residual = 0.0211869, Final residual = 0.000443057, No Iterations 1
time step continuity errors : sum local = 0.000150139, global = 1.69677e-09, cumulative = 0.000563985
DICPCG:  Solving for p_rgh, Initial residual = 0.000542722, Final residual = 2.57005e-05, No Iterations 9
time step continuity errors : sum local = 8.56069e-06, global = 2.47872e-08, cumulative = 0.00056401
DICPCG:  Solving for p_rgh, Initial residual = 7.02778e-05, Final residual = 8.58109e-08, No Iterations 48
time step continuity errors : sum local = 2.8729e-08, global = 1.34714e-09, cumulative = 0.000564011
ExecutionTime = 0.65 s  ClockTime = 0 s

Courant Number mean: 0.0575936 max: 0.983992
Interface Courant Number mean: 0.00469903 max: 0.88878
deltaT = 0.00129545
Time = 0.126682

smoothSolver:  Solving for alpha.water, Initial residual = 0.00258384, Final residual = 4.08617e-10, No Iterations 3
Phase-1 volume fraction = 0.130194  Min(alpha.water) = -3.92499e-16  Max(alpha.water) = 1
MULES: Correcting alpha.water
MULES: Correcting alpha.water
Phase-1 volume fraction = 0.130194  Min(alpha.water) = -3.41842e-10  Max(alpha.water) = 1
DICPCG:  Solving for p_rgh, Initial residual = 0.0236664, Final residual = 0.000417832, No Iterations 1
time step continuity errors : sum local = 0.000146671, global = 2.1672e-09, cumulative = 0.000564014
DICPCG:  Solving for p_rgh, Initial residual = 0.000512838, Final residual = 2.5489e-05, No Iterations 12
time step continuity errors : sum local = 8.77033e-06, global = 2.33078e-07, cumulative = 0.000564247
DICPCG:  Solving for p_rgh, Initial residual = 7.10041e-05, Final residual = 9.25209e-08, No Iterations 51
time step continuity errors : sum local = 3.20589e-08, global = -9.12453e-10, cumulative = 0.000564246
ExecutionTime = 0.66 s  ClockTime = 0 s

Courant Number mean: 0.0579841 max: 0.976673
Interface Courant Number mean: 0.00477728 max: 0.874832
deltaT = 0.00129545
Time = 0.127977

smoothSolver:  Solving for alpha.water, Initial residual = 0.00259898, Final residual = 4.14052e-10, No Iterations 3
Phase-1 volume fraction = 0.130194  Min(alpha.water) = -3.61766e-16  Max(alpha.water) = 1
MULES: Correcting alpha.water
MULES: Correcting alpha.water
Phase-1 volume fraction = 0.130194  Min(alpha.water) = -6.70317e-12  Max(alpha.water) = 1
DICPCG:  Solving for p_rgh, Initial residual = 0.0220566, Final residual = 0.000446669, No Iterations 1
time step continuity errors : sum local = 0.000152192, global = -5.10359e-09, cumulative = 0.000564241
DICPCG:  Solving for p_rgh, Initial residual = 0.000538945, Final residual = 2.49776e-05, No Iterations 10
time step continuity errors : sum local = 8.35633e-06, global = 4.95454e-08, cumulative = 0.00056429
DICPCG:  Solving for p_rgh, Initial residual = 6.8699e-05, Final residual = 8.60248e-08, No Iterations 53
time step continuity errors : sum local = 2.89807e-08, global = -4.20438e-10, cumulative = 0.00056429
ExecutionTime = 0.68 s  ClockTime = 0 s

Courant Number mean: 0.0583812 max: 0.960589
Interface Courant Number mean: 0.00485901 max: 0.856626
deltaT = 0.00129545
Time = 0.129273

smoothSolver:  Solving for alpha.water, Initial residual = 0.00261872, Final residual = 4.1212e-10, No Iterations 3
Phase-1 volume fraction = 0.130194  Min(alpha.water) = -3.32052e-16  Max(alpha.water) = 1
MULES: Correcting alpha.water
MULES: Correcting alpha.water
Phase-1 volume fraction = 0.130194  Min(alpha.water) = -1.95089e-11  Max(alpha.water) = 1
DICPCG:  Solving for p_rgh, Initial residual = 0.022159, Final residual = 0.000493885, No Iterations 1
time step continuity errors : sum local = 0.0001656, global = 5.70006e-12, cumulative = 0.00056429
DICPCG:  Solving for p_rgh, Initial residual = 0.000602363, Final residual = 2.87747e-05, No Iterations 12
time step continuity errors : sum local = 9.47312e-06, global = 2.13905e-07, cumulative = 0.000564504
DICPCG:  Solving for p_rgh, Initial residual = 8.12504e-05, Final residual = 8.43958e-08, No Iterations 52
time step continuity errors : sum local = 2.80387e-08, global = -1.22445e-09, cumulative = 0.000564502
ExecutionTime = 0.69 s  ClockTime = 0 s

Courant Number mean: 0.0587842 max: 0.930782
Interface Courant Number mean: 0.00505863 max: 0.930782
deltaT = 0.00138181
Time = 0.130655

smoothSolver:  Solving for alpha.water, Initial residual = 0.00282158, Final residual = 5.93212e-10, No Iterations 3
Phase-1 volume fraction = 0.130194  Min(alpha.water) = -3.01244e-16  Max(alpha.water) = 1
MULES: Correcting alpha.water
MULES: Correcting alpha.water
Phase-1 volume fraction = 0.130194  Min(alpha.water) = -2.00725e-10  Max(alpha.water) = 1
DICPCG:  Solving for p_rgh, Initial residual = 0.0214313, Final residual = 0.000590446, No Iterations 1
time step continuity errors : sum local = 0.000218701, global = -2.33604e-09, cumulative = 0.0005645
DICPCG:  Solving for p_rgh, Initial residual = 0.000710761, Final residual = 3.33931e-05, No Iterations 10
time step continuity errors : sum local = 1.21639e-05, global = 6.11913e-08, cumulative = 0.000564561
DICPCG:  Solving for p_rgh, Initial residual = 0.000101753, Final residual = 8.18014e-08, No Iterations 55
time step continuity errors : sum local = 3.00699e-08, global = -1.69373e-09, cumulative = 0.00056456
ExecutionTime = 0.7 s  ClockTime = 0 s

Courant Number mean: 0.0632047 max: 0.958635
Interface Courant Number mean: 0.00545573 max: 0.958635
deltaT = 0.00138181
Time = 0.132036

smoothSolver:  Solving for alpha.water, Initial residual = 0.00287602, Final residual = 5.69176e-10, No Iterations 3
Phase-1 volume fraction = 0.130194  Min(alpha.water) = -2.71201e-16  Max(alpha.water) = 1
MULES: Correcting alpha.water
MULES: Correcting alpha.water
Phase-1 volume fraction = 0.130194  Min(alpha.water) = -1.63088e-09  Max(alpha.water) = 1
DICPCG:  Solving for p_rgh, Initial residual = 0.0214214, Final residual = 0.00058475, No Iterations 1
time step continuity errors : sum local = 0.000216198, global = -6.85321e-10, cumulative = 0.000564559
DICPCG:  Solving for p_rgh, Initial residual = 0.000713913, Final residual = 3.29808e-05, No Iterations 10
time step continuity errors : sum local = 1.19985e-05, global = 5.35892e-08, cumulative = 0.000564612
DICPCG:  Solving for p_rgh, Initial residual = 0.000103946, Final residual = 8.75947e-08, No Iterations 55
time step continuity errors : sum local = 3.21654e-08, global = -2.62833e-09, cumulative = 0.00056461
ExecutionTime = 0.72 s  ClockTime = 0 s

Courant Number mean: 0.0637601 max: 0.927651
Interface Courant Number mean: 0.0056114 max: 0.927651
deltaT = 0.00138181
Time = 0.133418

smoothSolver:  Solving for alpha.water, Initial residual = 0.00292826, Final residual = 5.47708e-10, No Iterations 3
Phase-1 volume fraction = 0.130194  Min(alpha.water) = -2.41979e-16  Max(alpha.water) = 1
MULES: Correcting alpha.water
MULES: Correcting alpha.water
Phase-1 volume fraction = 0.130194  Min(alpha.water) = -1.96548e-09  Max(alpha.water) = 1
DICPCG:  Solving for p_rgh, Initial residual = 0.0187026, Final residual = 0.000659892, No Iterations 1
time step continuity errors : sum local = 0.000241206, global = -1.18507e-09, cumulative = 0.000564609
DICPCG:  Solving for p_rgh, Initial residual = 0.000826432, Final residual = 3.96796e-05, No Iterations 13
time step continuity errors : sum local = 1.43135e-05, global = 4.36149e-07, cumulative = 0.000565045
DICPCG:  Solving for p_rgh, Initial residual = 0.000137298, Final residual = 9.86485e-08, No Iterations 54
time step continuity errors : sum local = 3.60489e-08, global = -7.64824e-10, cumulative = 0.000565044
ExecutionTime = 0.73 s  ClockTime = 0 s

Courant Number mean: 0.0642953 max: 0.874869
Interface Courant Number mean: 0.00583628 max: 0.874869
deltaT = 0.00150743
Time = 0.134926

smoothSolver:  Solving for alpha.water, Initial residual = 0.00322679, Final residual = 8.86133e-10, No Iterations 3
Phase-1 volume fraction = 0.130194  Min(alpha.water) = -2.11946e-16  Max(alpha.water) = 1
MULES: Correcting alpha.water
MULES: Correcting alpha.water
Phase-1 volume fraction = 0.130194  Min(alpha.water) = -1.46912e-10  Max(alpha.water) = 1
DICPCG:  Solving for p_rgh, Initial residual = 0.0205465, Final residual = 0.000680045, No Iterations 1
time step continuity errors : sum local = 0.000298011, global = -2.81584e-09, cumulative = 0.000565041
DICPCG:  Solving for p_rgh, Initial residual = 0.000825108, Final residual = 3.97115e-05, No Iterations 10
time step continuity errors : sum local = 1.71539e-05, global = 6.61319e-08, cumulative = 0.000565107
DICPCG:  Solving for p_rgh, Initial residual = 0.000138238, Final residual = 8.64188e-08, No Iterations 54
time step continuity errors : sum local = 3.77651e-08, global = -9.06713e-10, cumulative = 0.000565106
ExecutionTime = 0.74 s  ClockTime = 0 s

Courant Number mean: 0.0707002 max: 0.898446
Interface Courant Number mean: 0.00629891 max: 0.898446
deltaT = 0.00167492
Time = 0.136601

smoothSolver:  Solving for alpha.water, Initial residual = 0.00363808, Final residual = 1.61813e-09, No Iterations 3
Phase-1 volume fraction = 0.130194  Min(alpha.water) = -1.92963e-16  Max(alpha.water) = 1
MULES: Correcting alpha.water
MULES: Correcting alpha.water
Phase-1 volume fraction = 0.130194  Min(alpha.water) = -3.65054e-11  Max(alpha.water) = 1
DICPCG:  Solving for p_rgh, Initial residual = 0.0230669, Final residual = 0.000704004, No Iterations 1
time step continuity errors : sum local = 0.000385579, global = -1.41584e-09, cumulative = 0.000565105
DICPCG:  Solving for p_rgh, Initial residual = 0.000868174, Final residual = 3.94595e-05, No Iterations 10
time step continuity errors : sum local = 2.12697e-05, global = 7.58922e-08, cumulative = 0.000565181
DICPCG:  Solving for p_rgh, Initial residual = 0.000145304, Final residual = 9.38217e-08, No Iterations 54
time step continuity errors : sum local = 5.11992e-08, global = -1.36749e-09, cumulative = 0.00056518
ExecutionTime = 0.76 s  ClockTime = 0 s

Courant Number mean: 0.0791227 max: 0.943934
Interface Courant Number mean: 0.00722079 max: 0.943934
deltaT = 0.00167492
Time = 0.138276

smoothSolver:  Solving for alpha.water, Initial residual = 0.00370216, Final residual = 1.58224e-09, No Iterations 3
Phase-1 volume fraction = 0.130194  Min(alpha.water) = -1.78784e-16  Max(alpha.water) = 1
MULES: Correcting alpha.water
MULES: Correcting alpha.water
Phase-1 volume fraction = 0.130194  Min(alpha.water) = -1.75038e-11  Max(alpha.water) = 1
DICPCG:  Solving for p_rgh, Initial residual = 0.0232122, Final residual = 0.000654679, No Iterations 1
time step continuity errors : sum local = 0.000367064, global = -5.3682e-09, cumulative = 0.000565174
DICPCG:  Solving for p_rgh, Initial residual = 0.000779255, Final residual = 3.66914e-05, No Iterations 13
time step continuity errors : sum local = 2.02324e-05, global = 6.17665e-07, cumulative = 0.000565792
DICPCG:  Solving for p_rgh, Initial residual = 0.000127863, Final residual = 8.96823e-08, No Iterations 55
time step continuity errors : sum local = 5.01797e-08, global = -4.17839e-10, cumulative = 0.000565791
ExecutionTime = 0.77 s  ClockTime = 0 s

Courant Number mean: 0.0796552 max: 0.940393
Interface Courant Number mean: 0.00738792 max: 0.940393
deltaT = 0.00167492
Time = 0.13995

smoothSolver:  Solving for alpha.water, Initial residual = 0.00373311, Final residual = 1.61061e-09, No Iterations 3
Phase-1 volume fraction = 0.130194  Min(alpha.water) = -1.64819e-16  Max(alpha.water) = 1
MULES: Correcting alpha.water
MULES: Correcting alpha.water
Phase-1 volume fraction = 0.130194  Min(alpha.water) = -9.18338e-12  Max(alpha.water) = 1
DICPCG:  Solving for p_rgh, Initial residual = 0.0222858, Final residual = 0.000700394, No Iterations 1
time step continuity errors : sum local = 0.000398083, global = -7.55879e-09, cumulative = 0.000565784
DICPCG:  Solving for p_rgh, Initial residual = 0.000824524, Final residual = 4.07758e-05, No Iterations 14
time step continuity errors : sum local = 2.28352e-05, global = 1.0229e-06, cumulative = 0.000566807
DICPCG:  Solving for p_rgh, Initial residual = 0.000122524, Final residual = 9.99748e-08, No Iterations 55
time step continuity errors : sum local = 5.67715e-08, global = -1.02461e-10, cumulative = 0.000566807
ExecutionTime = 0.79 s  ClockTime = 0 s

Courant Number mean: 0.080209 max: 0.955249
Interface Courant Number mean: 0.00791921 max: 0.955249
deltaT = 0.00167492
Time = 0.141625

smoothSolver:  Solving for alpha.water, Initial residual = 0.00382201, Final residual = 1.63157e-09, No Iterations 3
Phase-1 volume fraction = 0.130194  Min(alpha.water) = -1.5108e-16  Max(alpha.water) = 1
MULES: Correcting alpha.water
MULES: Correcting alpha.water
Phase-1 volume fraction = 0.130194  Min(alpha.water) = -4.93884e-12  Max(alpha.water) = 1
DICPCG:  Solving for p_rgh, Initial residual = 0.0214476, Final residual = 0.000630957, No Iterations 1
time step continuity errors : sum local = 0.000369159, global = -9.60365e-09, cumulative = 0.000566797
DICPCG:  Solving for p_rgh, Initial residual = 0.000746187, Final residual = 3.72905e-05, No Iterations 10
time step continuity errors : sum local = 2.14926e-05, global = 7.98996e-08, cumulative = 0.000566877
DICPCG:  Solving for p_rgh, Initial residual = 0.000119327, Final residual = 9.30506e-08, No Iterations 56
time step continuity errors : sum local = 5.43072e-08, global = -1.75849e-09, cumulative = 0.000566875
ExecutionTime = 0.8 s  ClockTime = 0 s

Courant Number mean: 0.0806826 max: 0.947548
Interface Courant Number mean: 0.00765723 max: 0.947548
deltaT = 0.00167492
Time = 0.1433

smoothSolver:  Solving for alpha.water, Initial residual = 0.00391154, Final residual = 1.62642e-09, No Iterations 3
Phase-1 volume fraction = 0.130194  Min(alpha.water) = -1.37566e-16  Max(alpha.water) = 1
MULES: Correcting alpha.water
MULES: Correcting alpha.water
Phase-1 volume fraction = 0.130194  Min(alpha.water) = -3.18574e-08  Max(alpha.water) = 1
DICPCG:  Solving for p_rgh, Initial residual = 0.0230694, Final residual = 0.000535865, No Iterations 1
time step continuity errors : sum local = 0.000326387, global = -5.13307e-09, cumulative = 0.00056687
DICPCG:  Solving for p_rgh, Initial residual = 0.000646078, Final residual = 2.6646e-05, No Iterations 15
time step continuity errors : sum local = 1.59475e-05, global = 8.3139e-07, cumulative = 0.000567701
DICPCG:  Solving for p_rgh, Initial residual = 0.000103568, Final residual = 7.92515e-08, No Iterations 56
time step continuity errors : sum local = 4.81362e-08, global = 1.48465e-10, cumulative = 0.000567702
ExecutionTime = 0.82 s  ClockTime = 0 s

Courant Number mean: 0.0812198 max: 0.93777
Interface Courant Number mean: 0.00893255 max: 0.93777
deltaT = 0.00167492
Time = 0.144975

smoothSolver:  Solving for alpha.water, Initial residual = 0.00396885, Final residual = 1.61211e-09, No Iterations 3
Phase-1 volume fraction = 0.130194  Min(alpha.water) = -1.24246e-16  Max(alpha.water) = 1
MULES: Correcting alpha.water
MULES: Correcting alpha.water
Phase-1 volume fraction = 0.130194  Min(alpha.water) = -5.16374e-09  Max(alpha.water) = 1
DICPCG:  Solving for p_rgh, Initial residual = 0.0216432, Final residual = 0.000552902, No Iterations 1
time step continuity errors : sum local = 0.000338003, global = -6.05576e-09, cumulative = 0.000567696
DICPCG:  Solving for p_rgh, Initial residual = 0.000660824, Final residual = 3.03438e-05, No Iterations 12
time step continuity errors : sum local = 1.82373e-05, global = 2.88332e-07, cumulative = 0.000567984
DICPCG:  Solving for p_rgh, Initial residual = 0.00010226, Final residual = 9.28322e-08, No Iterations 56
time step continuity errors : sum local = 5.63065e-08, global = -5.72647e-10, cumulative = 0.000567983
ExecutionTime = 0.84 s  ClockTime = 0 s

Courant Number mean: 0.0817521 max: 0.933079
Interface Courant Number mean: 0.0084621 max: 0.933079
deltaT = 0.00167492
Time = 0.14665

smoothSolver:  Solving for alpha.water, Initial residual = 0.00398847, Final residual = 1.62867e-09, No Iterations 3
Phase-1 volume fraction = 0.130194  Min(alpha.water) = -1.11074e-16  Max(alpha.water) = 1
MULES: Correcting alpha.water
MULES: Correcting alpha.water
Phase-1 volume fraction = 0.130194  Min(alpha.water) = -2.22273e-09  Max(alpha.water) = 1
DICPCG:  Solving for p_rgh, Initial residual = 0.021653, Final residual = 0.000610825, No Iterations 1
time step continuity errors : sum local = 0.000371225, global = -4.33967e-09, cumulative = 0.000567979
DICPCG:  Solving for p_rgh, Initial residual = 0.000722833, Final residual = 3.57897e-05, No Iterations 12
time step continuity errors : sum local = 2.13961e-05, global = 2.95636e-07, cumulative = 0.000568275
DICPCG:  Solving for p_rgh, Initial residual = 0.000113646, Final residual = 9.75432e-08, No Iterations 52
time step continuity errors : sum local = 5.90123e-08, global = 1.82049e-09, cumulative = 0.000568276
ExecutionTime = 0.85 s  ClockTime = 0 s

Courant Number mean: 0.0820898 max: 0.912613
Interface Courant Number mean: 0.00841818 max: 0.912613
deltaT = 0.00167492
Time = 0.148325

smoothSolver:  Solving for alpha.water, Initial residual = 0.00400624, Final residual = 1.63928e-09, No Iterations 3
Phase-1 volume fraction = 0.130194  Min(alpha.water) = -9.80567e-17  Max(alpha.water) = 1
MULES: Correcting alpha.water
MULES: Correcting alpha.water
Phase-1 volume fraction = 0.130194  Min(alpha.water) = -1.47817e-09  Max(alpha.water) = 1
DICPCG:  Solving for p_rgh, Initial residual = 0.0201521, Final residual = 0.000584309, No Iterations 1
time step continuity errors : sum local = 0.000353776, global = -2.61266e-09, cumulative = 0.000568274
DICPCG:  Solving for p_rgh, Initial residual = 0.000703596, Final residual = 3.06418e-05, No Iterations 12
time step continuity errors : sum local = 1.82699e-05, global = 2.17309e-07, cumulative = 0.000568491
DICPCG:  Solving for p_rgh, Initial residual = 0.000109518, Final residual = 9.12603e-08, No Iterations 54
time step continuity errors : sum local = 5.50151e-08, global = -4.45987e-09, cumulative = 0.000568487
ExecutionTime = 0.87 s  ClockTime = 0 s

Courant Number mean: 0.0823792 max: 0.905135
Interface Courant Number mean: 0.00853585 max: 0.905135
deltaT = 0.00167492
Time = 0.15

smoothSolver:  Solving for alpha.water, Initial residual = 0.00409688, Final residual = 1.64994e-09, No Iterations 3
Phase-1 volume fraction = 0.130194  Min(alpha.water) = -8.54483e-17  Max(alpha.water) = 1
MULES: Correcting alpha.water
MULES: Correcting alpha.water
Phase-1 volume fraction = 0.130194  Min(alpha.water) = -1.57733e-09  Max(alpha.water) = 1
DICPCG:  Solving for p_rgh, Initial residual = 0.0185309, Final residual = 0.000598081, No Iterations 1
time step continuity errors : sum local = 0.000361356, global = -1.04525e-08, cumulative = 0.000568476
DICPCG:  Solving for p_rgh, Initial residual = 0.000707703, Final residual = 3.06827e-05, No Iterations 9
time step continuity errors : sum local = 1.82837e-05, global = -4.55475e-09, cumulative = 0.000568472
DICPCG:  Solving for p_rgh, Initial residual = 0.000111492, Final residual = 9.94941e-08, No Iterations 40
time step continuity errors : sum local = 5.97107e-08, global = -1.60055e-08, cumulative = 0.000568456
ExecutionTime = 0.89 s  ClockTime = 1 s

Courant Number mean: 0.0826896 max: 0.88599
Interface Courant Number mean: 0.0090896 max: 0.88599
deltaT = 0.00185185
Time = 0.151852

smoothSolver:  Solving for alpha.water, Initial residual = 0.00461328, Final residual = 3.07422e-09, No Iterations 3
Phase-1 volume fraction = 0.130194  Min(alpha.water) = -7.23113e-17  Max(alpha.water) = 1
MULES: Correcting alpha.water
MULES: Correcting alpha.water
Phase-1 volume fraction = 0.130194  Min(alpha.water) = -3.11383e-09  Max(alpha.water) = 1
DICPCG:  Solving for p_rgh, Initial residual = 0.0200736, Final residual = 0.000701102, No Iterations 1
time step continuity errors : sum local = 0.000516761, global = -3.2019e-08, cumulative = 0.000568424
DICPCG:  Solving for p_rgh, Initial residual = 0.000818385, Final residual = 3.5647e-05, No Iterations 9
time step continuity errors : sum local = 2.58853e-05, global = -5.34482e-08, cumulative = 0.00056837
DICPCG:  Solving for p_rgh, Initial residual = 0.000134585, Final residual = 9.44055e-08, No Iterations 57
time step continuity errors : sum local = 6.90042e-08, global = -9.49974e-10, cumulative = 0.000568369
ExecutionTime = 0.9 s  ClockTime = 1 s

Courant Number mean: 0.0918194 max: 0.979271
Interface Courant Number mean: 0.0106976 max: 0.979271
deltaT = 0.00185185
Time = 0.153704

smoothSolver:  Solving for alpha.water, Initial residual = 0.00467711, Final residual = 3.14743e-09, No Iterations 3
Phase-1 volume fraction = 0.130194  Min(alpha.water) = -6.00543e-17  Max(alpha.water) = 1
MULES: Correcting alpha.water
MULES: Correcting alpha.water
Phase-1 volume fraction = 0.130194  Min(alpha.water) = -1.37429e-09  Max(alpha.water) = 1
DICPCG:  Solving for p_rgh, Initial residual = 0.019021, Final residual = 0.000690336, No Iterations 1
time step continuity errors : sum local = 0.000512652, global = 1.74655e-08, cumulative = 0.000568387
DICPCG:  Solving for p_rgh, Initial residual = 0.000806214, Final residual = 3.86412e-05, No Iterations 8
time step continuity errors : sum local = 2.83039e-05, global = -1.74639e-08, cumulative = 0.000568369
DICPCG:  Solving for p_rgh, Initial residual = 0.000137693, Final residual = 8.976e-08, No Iterations 56
time step continuity errors : sum local = 6.58542e-08, global = -1.84541e-09, cumulative = 0.000568367
ExecutionTime = 0.91 s  ClockTime = 1 s

Courant Number mean: 0.0921709 max: 0.977805
Interface Courant Number mean: 0.0105781 max: 0.977805
deltaT = 0.00185185
Time = 0.155556

smoothSolver:  Solving for alpha.water, Initial residual = 0.00475356, Final residual = 3.17215e-09, No Iterations 3
Phase-1 volume fraction = 0.130194  Min(alpha.water) = -5.40698e-17  Max(alpha.water) = 1
MULES: Correcting alpha.water
MULES: Correcting alpha.water
Phase-1 volume fraction = 0.130194  Min(alpha.water) = -1.46349e-06  Max(alpha.water) = 1
DICPCG:  Solving for p_rgh, Initial residual = 0.0187174, Final residual = 0.000656413, No Iterations 1
time step continuity errors : sum local = 0.000489138, global = -1.69224e-09, cumulative = 0.000568366
DICPCG:  Solving for p_rgh, Initial residual = 0.000774647, Final residual = 3.16663e-05, No Iterations 9
time step continuity errors : sum local = 2.32882e-05, global = -2.54777e-08, cumulative = 0.00056834
DICPCG:  Solving for p_rgh, Initial residual = 0.000127007, Final residual = 8.95286e-08, No Iterations 56
time step continuity errors : sum local = 6.60613e-08, global = 1.79033e-09, cumulative = 0.000568342
ExecutionTime = 0.92 s  ClockTime = 1 s

Courant Number mean: 0.0924378 max: 0.962206
Interface Courant Number mean: 0.0102531 max: 0.962206
deltaT = 0.00185185
Time = 0.157407

smoothSolver:  Solving for alpha.water, Initial residual = 0.0048436, Final residual = 3.17547e-09, No Iterations 3
Phase-1 volume fraction = 0.130194  Min(alpha.water) = -4.95099e-17  Max(alpha.water) = 1
MULES: Correcting alpha.water
MULES: Correcting alpha.water
Phase-1 volume fraction = 0.130194  Min(alpha.water) = -1.23352e-06  Max(alpha.water) = 1
DICPCG:  Solving for p_rgh, Initial residual = 0.0189831, Final residual = 0.000642208, No Iterations 1
time step continuity errors : sum local = 0.000489992, global = 8.30025e-09, cumulative = 0.00056835
DICPCG:  Solving for p_rgh, Initial residual = 0.000754022, Final residual = 2.70794e-05, No Iterations 9
time step continuity errors : sum local = 2.0416e-05, global = -2.26789e-08, cumulative = 0.000568328
DICPCG:  Solving for p_rgh, Initial residual = 0.000117828, Final residual = 8.4162e-08, No Iterations 56
time step continuity errors : sum local = 6.37579e-08, global = -2.98023e-09, cumulative = 0.000568325
ExecutionTime = 0.93 s  ClockTime = 1 s

Courant Number mean: 0.0927258 max: 0.942461
Interface Courant Number mean: 0.0111191 max: 0.942461
deltaT = 0.00193603
Time = 0.159343

smoothSolver:  Solving for alpha.water, Initial residual = 0.00513372, Final residual = 4.0998e-09, No Iterations 3
Phase-1 volume fraction = 0.130194  Min(alpha.water) = -4.47664e-17  Max(alpha.water) = 1
MULES: Correcting alpha.water
MULES: Correcting alpha.water
Phase-1 volume fraction = 0.130194  Min(alpha.water) = -8.08147e-08  Max(alpha.water) = 1
DICPCG:  Solving for p_rgh, Initial residual = 0.0222089, Final residual = 0.00059783, No Iterations 1
time step continuity errors : sum local = 0.000513423, global = -9.30669e-09, cumulative = 0.000568315
DICPCG:  Solving for p_rgh, Initial residual = 0.000710171, Final residual = 2.9627e-05, No Iterations 9
time step continuity errors : sum local = 2.50433e-05, global = -4.08641e-08, cumulative = 0.000568275
DICPCG:  Solving for p_rgh, Initial residual = 0.000123579, Final residual = 8.62445e-08, No Iterations 59
time step continuity errors : sum local = 7.33857e-08, global = -4.5048e-09, cumulative = 0.00056827
ExecutionTime = 0.94 s  ClockTime = 1 s

Courant Number mean: 0.0971675 max: 0.962777
Interface Courant Number mean: 0.0118469 max: 0.962777
deltaT = 0.00193603
Time = 0.161279

smoothSolver:  Solving for alpha.water, Initial residual = 0.00518592, Final residual = 4.12852e-09, No Iterations 3
Phase-1 volume fraction = 0.130194  Min(alpha.water) = -4.00588e-17  Max(alpha.water) = 1
MULES: Correcting alpha.water
MULES: Correcting alpha.water
Phase-1 volume fraction = 0.130194  Min(alpha.water) = -3.74097e-06  Max(alpha.water) = 1
DICPCG:  Solving for p_rgh, Initial residual = 0.0213888, Final residual = 0.000604935, No Iterations 1
time step continuity errors : sum local = 0.000518327, global = 2.56184e-09, cumulative = 0.000568273
DICPCG:  Solving for p_rgh, Initial residual = 0.000713989, Final residual = 3.18689e-05, No Iterations 9
time step continuity errors : sum local = 2.68925e-05, global = -3.61023e-08, cumulative = 0.000568236
DICPCG:  Solving for p_rgh, Initial residual = 0.000126785, Final residual = 9.47472e-08, No Iterations 59
time step continuity errors : sum local = 8.02891e-08, global = -3.8249e-09, cumulative = 0.000568233
ExecutionTime = 0.95 s  ClockTime = 1 s

Courant Number mean: 0.0973128 max: 0.942681
Interface Courant Number mean: 0.0117686 max: 0.942681
deltaT = 0.00203792
Time = 0.163317

smoothSolver:  Solving for alpha.water, Initial residual = 0.00551539, Final residual = 5.73432e-09, No Iterations 3
Phase-1 volume fraction = 0.130194  Min(alpha.water) = -3.50878e-17  Max(alpha.water) = 1
MULES: Correcting alpha.water
MULES: Correcting alpha.water
Phase-1 volume fraction = 0.130194  Min(alpha.water) = -7.66855e-06  Max(alpha.water) = 1.00001
DICPCG:  Solving for p_rgh, Initial residual = 0.02083, Final residual = 0.000568506, No Iterations 1
time step continuity errors : sum local = 0.000530933, global = 1.25012e-08, cumulative = 0.000568245
[...]
time step continuity errors : sum local = 2.57091e-05, global = -8.49593e-08, cumulative = 0.00420332
DICPCG:  Solving for p_rgh, Initial residual = 0.000200908, Final residual = 9.56403e-08, No Iterations 51
time step continuity errors : sum local = 6.4773e-08, global = -5.68798e-10, cumulative = 0.00420331
ExecutionTime = 7.6 s  ClockTime = 7 s

Courant Number mean: 0.149701 max: 0.946567
Interface Courant Number mean: 0.0312217 max: 0.557631
deltaT = 0.00251894
Time = 0.957178

smoothSolver:  Solving for alpha.water, Initial residual = 0.0074099, Final residual = 8.26749e-09, No Iterations 3
Phase-1 volume fraction = 0.127486  Min(alpha.water) = -1.32256e-20  Max(alpha.water) = 1
MULES: Correcting alpha.water
MULES: Correcting alpha.water
Phase-1 volume fraction = 0.127486  Min(alpha.water) = -5.26743e-07  Max(alpha.water) = 1
DICPCG:  Solving for p_rgh, Initial residual = 0.033621, Final residual = 0.00155013, No Iterations 2
time step continuity errors : sum local = 0.00118397, global = 3.86564e-08, cumulative = 0.00420335
DICPCG:  Solving for p_rgh, Initial residual = 0.00190562, Final residual = 8.4751e-05, No Iterations 8
time step continuity errors : sum local = 6.3717e-05, global = -5.21764e-07, cumulative = 0.00420283
DICPCG:  Solving for p_rgh, Initial residual = 0.00038118, Final residual = 8.65244e-08, No Iterations 52
time step continuity errors : sum local = 6.48761e-08, global = 5.08372e-09, cumulative = 0.00420284
ExecutionTime = 7.6 s  ClockTime = 7 s

Courant Number mean: 0.158189 max: 0.978495
Interface Courant Number mean: 0.0331339 max: 0.585352
deltaT = 0.00251894
Time = 0.959697

smoothSolver:  Solving for alpha.water, Initial residual = 0.00747044, Final residual = 9.98755e-09, No Iterations 3
Phase-1 volume fraction = 0.127486  Min(alpha.water) = -1.30158e-20  Max(alpha.water) = 1
MULES: Correcting alpha.water
MULES: Correcting alpha.water
Phase-1 volume fraction = 0.127486  Min(alpha.water) = -4.53662e-07  Max(alpha.water) = 1
DICPCG:  Solving for p_rgh, Initial residual = 0.0316107, Final residual = 0.00109411, No Iterations 3
time step continuity errors : sum local = 0.000816044, global = 6.02684e-08, cumulative = 0.0042029
DICPCG:  Solving for p_rgh, Initial residual = 0.00136017, Final residual = 6.24259e-05, No Iterations 10
time step continuity errors : sum local = 4.59811e-05, global = -3.98919e-06, cumulative = 0.00419891
DICPCG:  Solving for p_rgh, Initial residual = 0.000259339, Final residual = 8.53036e-08, No Iterations 50
time step continuity errors : sum local = 6.27785e-08, global = 4.30152e-09, cumulative = 0.00419891
ExecutionTime = 7.61 s  ClockTime = 7 s

Courant Number mean: 0.158394 max: 0.962262
Interface Courant Number mean: 0.0329567 max: 0.577543
deltaT = 0.00251894
Time = 0.962216

smoothSolver:  Solving for alpha.water, Initial residual = 0.00748427, Final residual = 1.28606e-10, No Iterations 4
Phase-1 volume fraction = 0.127486  Min(alpha.water) = -1.28157e-20  Max(alpha.water) = 1
MULES: Correcting alpha.water
MULES: Correcting alpha.water
Phase-1 volume fraction = 0.127486  Min(alpha.water) = -7.36147e-07  Max(alpha.water) = 1
DICPCG:  Solving for p_rgh, Initial residual = 0.030717, Final residual = 0.00128478, No Iterations 3
time step continuity errors : sum local = 0.000952351, global = 1.85263e-07, cumulative = 0.0041991
DICPCG:  Solving for p_rgh, Initial residual = 0.00155448, Final residual = 7.48265e-05, No Iterations 11
time step continuity errors : sum local = 5.49482e-05, global = -7.51274e-06, cumulative = 0.00419158
DICPCG:  Solving for p_rgh, Initial residual = 0.000282102, Final residual = 7.62286e-08, No Iterations 52
time step continuity errors : sum local = 5.60292e-08, global = 7.96165e-10, cumulative = 0.00419159
ExecutionTime = 7.62 s  ClockTime = 7 s

Courant Number mean: 0.158689 max: 0.954242
Interface Courant Number mean: 0.033076 max: 0.571486
deltaT = 0.00251894
Time = 0.964735

smoothSolver:  Solving for alpha.water, Initial residual = 0.00745986, Final residual = 1.38399e-10, No Iterations 4
Phase-1 volume fraction = 0.127486  Min(alpha.water) = -1.26501e-20  Max(alpha.water) = 1
MULES: Correcting alpha.water
MULES: Correcting alpha.water
Phase-1 volume fraction = 0.127486  Min(alpha.water) = -1.15285e-06  Max(alpha.water) = 1
DICPCG:  Solving for p_rgh, Initial residual = 0.0302946, Final residual = 0.00139215, No Iterations 2
time step continuity errors : sum local = 0.00103475, global = 3.65169e-07, cumulative = 0.00419195
DICPCG:  Solving for p_rgh, Initial residual = 0.00171437, Final residual = 8.55469e-05, No Iterations 8
time step continuity errors : sum local = 6.28825e-05, global = -1.04116e-06, cumulative = 0.00419091
DICPCG:  Solving for p_rgh, Initial residual = 0.00033192, Final residual = 9.36088e-08, No Iterations 53
time step continuity errors : sum local = 6.87194e-08, global = 9.17669e-10, cumulative = 0.00419091
ExecutionTime = 7.63 s  ClockTime = 7 s

Courant Number mean: 0.159145 max: 0.946262
Interface Courant Number mean: 0.0331178 max: 0.562198
deltaT = 0.00251894
Time = 0.967254

smoothSolver:  Solving for alpha.water, Initial residual = 0.00742633, Final residual = 1.46445e-10, No Iterations 4
Phase-1 volume fraction = 0.127486  Min(alpha.water) = -1.24847e-20  Max(alpha.water) = 1
MULES: Correcting alpha.water
MULES: Correcting alpha.water
Phase-1 volume fraction = 0.127486  Min(alpha.water) = -1.75004e-06  Max(alpha.water) = 1
DICPCG:  Solving for p_rgh, Initial residual = 0.0367317, Final residual = 0.00144676, No Iterations 2
time step continuity errors : sum local = 0.00113019, global = 1.29827e-07, cumulative = 0.00419104
DICPCG:  Solving for p_rgh, Initial residual = 0.0018164, Final residual = 6.67285e-05, No Iterations 8
time step continuity errors : sum local = 5.08658e-05, global = -2.29348e-07, cumulative = 0.00419081
DICPCG:  Solving for p_rgh, Initial residual = 0.000298761, Final residual = 8.66073e-08, No Iterations 52
time step continuity errors : sum local = 6.58758e-08, global = 3.40212e-09, cumulative = 0.00419081
ExecutionTime = 7.63 s  ClockTime = 7 s

Courant Number mean: 0.159659 max: 0.935053
Interface Courant Number mean: 0.0324742 max: 0.547836
deltaT = 0.00251894
Time = 0.969773

smoothSolver:  Solving for alpha.water, Initial residual = 0.00743281, Final residual = 1.54215e-10, No Iterations 4
Phase-1 volume fraction = 0.127486  Min(alpha.water) = -1.23196e-20  Max(alpha.water) = 1
MULES: Correcting alpha.water
MULES: Correcting alpha.water
Phase-1 volume fraction = 0.127486  Min(alpha.water) = -2.42374e-06  Max(alpha.water) = 1
DICPCG:  Solving for p_rgh, Initial residual = 0.0346788, Final residual = 0.00122707, No Iterations 2
time step continuity errors : sum local = 0.000928674, global = 3.01713e-08, cumulative = 0.00419084
DICPCG:  Solving for p_rgh, Initial residual = 0.00153816, Final residual = 6.93577e-05, No Iterations 8
time step continuity errors : sum local = 5.13911e-05, global = -3.84643e-07, cumulative = 0.00419046
DICPCG:  Solving for p_rgh, Initial residual = 0.000272449, Final residual = 9.09485e-08, No Iterations 51
time step continuity errors : sum local = 6.73136e-08, global = 3.73259e-09, cumulative = 0.00419046
ExecutionTime = 7.64 s  ClockTime = 7 s

Courant Number mean: 0.160339 max: 0.920924
Interface Courant Number mean: 0.0323864 max: 0.546793
deltaT = 0.00251894
Time = 0.972292

smoothSolver:  Solving for alpha.water, Initial residual = 0.00748705, Final residual = 1.64335e-10, No Iterations 4
Phase-1 volume fraction = 0.127486  Min(alpha.water) = -1.21549e-20  Max(alpha.water) = 1
MULES: Correcting alpha.water
MULES: Correcting alpha.water
Phase-1 volume fraction = 0.127486  Min(alpha.water) = -3.89441e-06  Max(alpha.water) = 1
DICPCG:  Solving for p_rgh, Initial residual = 0.0346848, Final residual = 0.000903336, No Iterations 2
time step continuity errors : sum local = 0.00067523, global = 4.91794e-08, cumulative = 0.00419051
DICPCG:  Solving for p_rgh, Initial residual = 0.00116995, Final residual = 5.30926e-05, No Iterations 8
time step continuity errors : sum local = 3.89996e-05, global = -4.1019e-07, cumulative = 0.0041901
DICPCG:  Solving for p_rgh, Initial residual = 0.000226271, Final residual = 9.51597e-08, No Iterations 52
time step continuity errors : sum local = 6.97887e-08, global = 2.91527e-09, cumulative = 0.00419011
ExecutionTime = 7.65 s  ClockTime = 7 s

Courant Number mean: 0.161027 max: 0.904195
Interface Courant Number mean: 0.0324948 max: 0.55422
deltaT = 0.00277083
Time = 0.975063

smoothSolver:  Solving for alpha.water, Initial residual = 0.00830451, Final residual = 3.27608e-10, No Iterations 4
Phase-1 volume fraction = 0.127486  Min(alpha.water) = -1.19744e-20  Max(alpha.water) = 1
MULES: Correcting alpha.water
MULES: Correcting alpha.water
Phase-1 volume fraction = 0.127486  Min(alpha.water) = -9.83836e-06  Max(alpha.water) = 1
DICPCG:  Solving for p_rgh, Initial residual = 0.0350785, Final residual = 0.000802903, No Iterations 2
time step continuity errors : sum local = 0.000701663, global = 3.84471e-08, cumulative = 0.00419014
DICPCG:  Solving for p_rgh, Initial residual = 0.00110084, Final residual = 4.44582e-05, No Iterations 13
time step continuity errors : sum local = 3.82955e-05, global = 2.52667e-06, cumulative = 0.00419267
DICPCG:  Solving for p_rgh, Initial residual = 0.000225584, Final residual = 9.33123e-08, No Iterations 51
time step continuity errors : sum local = 8.06451e-08, global = 5.31341e-09, cumulative = 0.00419268
ExecutionTime = 7.66 s  ClockTime = 7 s

Courant Number mean: 0.178122 max: 0.972146
Interface Courant Number mean: 0.0354826 max: 0.611921
deltaT = 0.00277083
Time = 0.977833

smoothSolver:  Solving for alpha.water, Initial residual = 0.00835899, Final residual = 3.45078e-10, No Iterations 4
Phase-1 volume fraction = 0.127486  Min(alpha.water) = -1.17945e-20  Max(alpha.water) = 1
MULES: Correcting alpha.water
MULES: Correcting alpha.water
Phase-1 volume fraction = 0.127486  Min(alpha.water) = -5.30357e-06  Max(alpha.water) = 1
DICPCG:  Solving for p_rgh, Initial residual = 0.0342801, Final residual = 0.00148581, No Iterations 2
time step continuity errors : sum local = 0.0013305, global = -8.45783e-08, cumulative = 0.00419259
DICPCG:  Solving for p_rgh, Initial residual = 0.00183908, Final residual = 7.92996e-05, No Iterations 13
time step continuity errors : sum local = 6.96763e-05, global = 3.93801e-06, cumulative = 0.00419653
DICPCG:  Solving for p_rgh, Initial residual = 0.000353547, Final residual = 9.25559e-08, No Iterations 52
time step continuity errors : sum local = 8.14531e-08, global = -2.34236e-10, cumulative = 0.00419653
ExecutionTime = 7.67 s  ClockTime = 7 s

Courant Number mean: 0.179291 max: 0.956136
Interface Courant Number mean: 0.0351916 max: 0.609876
deltaT = 0.00277083
Time = 0.980604

smoothSolver:  Solving for alpha.water, Initial residual = 0.00833478, Final residual = 3.72218e-10, No Iterations 4
Phase-1 volume fraction = 0.127486  Min(alpha.water) = -1.16151e-20  Max(alpha.water) = 1
MULES: Correcting alpha.water
MULES: Correcting alpha.water
Phase-1 volume fraction = 0.127486  Min(alpha.water) = -9.2458e-07  Max(alpha.water) = 1
DICPCG:  Solving for p_rgh, Initial residual = 0.0333309, Final residual = 0.00165347, No Iterations 2
time step continuity errors : sum local = 0.00145551, global = -1.81908e-07, cumulative = 0.00419635
DICPCG:  Solving for p_rgh, Initial residual = 0.0020266, Final residual = 8.52176e-05, No Iterations 11
time step continuity errors : sum local = 7.36988e-05, global = 9.43186e-07, cumulative = 0.00419729
DICPCG:  Solving for p_rgh, Initial residual = 0.000379205, Final residual = 7.50915e-08, No Iterations 54
time step continuity errors : sum local = 6.50961e-08, global = -2.03733e-09, cumulative = 0.00419729
ExecutionTime = 7.68 s  ClockTime = 7 s

Courant Number mean: 0.180524 max: 0.947956
Interface Courant Number mean: 0.0351801 max: 0.604939
deltaT = 0.00277083
Time = 0.983375

smoothSolver:  Solving for alpha.water, Initial residual = 0.00828104, Final residual = 3.98051e-10, No Iterations 4
Phase-1 volume fraction = 0.127486  Min(alpha.water) = -1.14361e-20  Max(alpha.water) = 1
MULES: Correcting alpha.water
MULES: Correcting alpha.water
Phase-1 volume fraction = 0.127486  Min(alpha.water) = -2.52344e-06  Max(alpha.water) = 1
DICPCG:  Solving for p_rgh, Initial residual = 0.0343994, Final residual = 0.00130366, No Iterations 2
time step continuity errors : sum local = 0.00113868, global = -6.70751e-08, cumulative = 0.00419722
DICPCG:  Solving for p_rgh, Initial residual = 0.00164603, Final residual = 7.82382e-05, No Iterations 11
time step continuity errors : sum local = 6.72506e-05, global = -3.7903e-07, cumulative = 0.00419684
DICPCG:  Solving for p_rgh, Initial residual = 0.000343987, Final residual = 8.77876e-08, No Iterations 53
time step continuity errors : sum local = 7.57741e-08, global = -1.54572e-10, cumulative = 0.00419684
ExecutionTime = 7.69 s  ClockTime = 7 s

Courant Number mean: 0.181666 max: 0.936459
Interface Courant Number mean: 0.0355681 max: 0.595566
deltaT = 0.00277083
Time = 0.986146

smoothSolver:  Solving for alpha.water, Initial residual = 0.00823009, Final residual = 4.45842e-10, No Iterations 4
Phase-1 volume fraction = 0.127486  Min(alpha.water) = -1.12574e-20  Max(alpha.water) = 1
MULES: Correcting alpha.water
MULES: Correcting alpha.water
Phase-1 volume fraction = 0.127486  Min(alpha.water) = -2.66247e-06  Max(alpha.water) = 1
DICPCG:  Solving for p_rgh, Initial residual = 0.0353281, Final residual = 0.00113376, No Iterations 2
time step continuity errors : sum local = 0.000980247, global = 8.66411e-09, cumulative = 0.00419685
DICPCG:  Solving for p_rgh, Initial residual = 0.00150277, Final residual = 7.23005e-05, No Iterations 14
time step continuity errors : sum local = 6.17036e-05, global = 2.63562e-06, cumulative = 0.00419949
DICPCG:  Solving for p_rgh, Initial residual = 0.000309686, Final residual = 9.32905e-08, No Iterations 52
time step continuity errors : sum local = 8.02488e-08, global = 2.3895e-09, cumulative = 0.00419949
ExecutionTime = 7.69 s  ClockTime = 7 s

Courant Number mean: 0.182675 max: 0.92229
Interface Courant Number mean: 0.0350116 max: 0.62345
deltaT = 0.00277083
Time = 0.988917

smoothSolver:  Solving for alpha.water, Initial residual = 0.00830377, Final residual = 5.69596e-10, No Iterations 4
Phase-1 volume fraction = 0.127486  Min(alpha.water) = -1.11281e-20  Max(alpha.water) = 1
MULES: Correcting alpha.water
MULES: Correcting alpha.water
Phase-1 volume fraction = 0.127486  Min(alpha.water) = -3.30494e-06  Max(alpha.water) = 1
DICPCG:  Solving for p_rgh, Initial residual = 0.0305974, Final residual = 0.00114183, No Iterations 2
time step continuity errors : sum local = 0.000978806, global = -6.76658e-08, cumulative = 0.00419942
DICPCG:  Solving for p_rgh, Initial residual = 0.00149001, Final residual = 7.19613e-05, No Iterations 15
time step continuity errors : sum local = 6.07451e-05, global = 9.15449e-06, cumulative = 0.00420858
DICPCG:  Solving for p_rgh, Initial residual = 0.000317217, Final residual = 8.49207e-08, No Iterations 54
time step continuity errors : sum local = 7.24636e-08, global = -4.56086e-10, cumulative = 0.00420858
ExecutionTime = 7.7 s  ClockTime = 7 s

Courant Number mean: 0.183837 max: 0.905745
Interface Courant Number mean: 0.0350074 max: 0.668531
deltaT = 0.00277083
Time = 0.991688

smoothSolver:  Solving for alpha.water, Initial residual = 0.00828044, Final residual = 7.87906e-10, No Iterations 4
Phase-1 volume fraction = 0.127486  Min(alpha.water) = -1.11137e-20  Max(alpha.water) = 1
MULES: Correcting alpha.water
MULES: Correcting alpha.water
Phase-1 volume fraction = 0.127486  Min(alpha.water) = -5.4219e-06  Max(alpha.water) = 1
DICPCG:  Solving for p_rgh, Initial residual = 0.0329537, Final residual = 0.00163346, No Iterations 2
time step continuity errors : sum local = 0.00145843, global = -3.71538e-07, cumulative = 0.0042082
DICPCG:  Solving for p_rgh, Initial residual = 0.00196621, Final residual = 9.70443e-05, No Iterations 11
time step continuity errors : sum local = 8.50497e-05, global = 1.32403e-06, cumulative = 0.00420953
DICPCG:  Solving for p_rgh, Initial residual = 0.000376042, Final residual = 7.9929e-08, No Iterations 54
time step continuity errors : sum local = 7.06255e-08, global = -5.7017e-09, cumulative = 0.00420952
ExecutionTime = 7.71 s  ClockTime = 7 s

Courant Number mean: 0.184797 max: 0.88738
Interface Courant Number mean: 0.0371267 max: 0.70611
deltaT = 0.00277083
Time = 0.994458

smoothSolver:  Solving for alpha.water, Initial residual = 0.00827337, Final residual = 1.1554e-09, No Iterations 4
Phase-1 volume fraction = 0.127486  Min(alpha.water) = -1.10926e-20  Max(alpha.water) = 1
MULES: Correcting alpha.water
MULES: Correcting alpha.water
Phase-1 volume fraction = 0.127486  Min(alpha.water) = -7.56476e-06  Max(alpha.water) = 1
DICPCG:  Solving for p_rgh, Initial residual = 0.0345782, Final residual = 0.00118434, No Iterations 2
time step continuity errors : sum local = 0.00107728, global = -1.23166e-07, cumulative = 0.0042094
DICPCG:  Solving for p_rgh, Initial residual = 0.00144204, Final residual = 6.97101e-05, No Iterations 10
time step continuity errors : sum local = 6.22942e-05, global = -2.51771e-07, cumulative = 0.00420915
DICPCG:  Solving for p_rgh, Initial residual = 0.000282171, Final residual = 9.53803e-08, No Iterations 52
time step continuity errors : sum local = 8.60497e-08, global = 2.56107e-09, cumulative = 0.00420915
ExecutionTime = 7.72 s  ClockTime = 7 s

Courant Number mean: 0.185698 max: 0.867201
Interface Courant Number mean: 0.0369529 max: 0.736832
deltaT = 0.00277083
Time = 0.997229

smoothSolver:  Solving for alpha.water, Initial residual = 0.0082486, Final residual = 1.76154e-09, No Iterations 4
Phase-1 volume fraction = 0.127486  Min(alpha.water) = -1.1065e-20  Max(alpha.water) = 1
MULES: Correcting alpha.water
MULES: Correcting alpha.water
Phase-1 volume fraction = 0.127486  Min(alpha.water) = -9.25014e-06  Max(alpha.water) = 1
DICPCG:  Solving for p_rgh, Initial residual = 0.033681, Final residual = 0.0008796, No Iterations 2
time step continuity errors : sum local = 0.000789171, global = 7.1552e-09, cumulative = 0.00420916
DICPCG:  Solving for p_rgh, Initial residual = 0.00112285, Final residual = 5.32622e-05, No Iterations 11
time step continuity errors : sum local = 4.70058e-05, global = -1.01787e-07, cumulative = 0.00420905
DICPCG:  Solving for p_rgh, Initial residual = 0.000237119, Final residual = 8.16214e-08, No Iterations 52
time step continuity errors : sum local = 7.31444e-08, global = -3.58465e-09, cumulative = 0.00420905
ExecutionTime = 7.73 s  ClockTime = 7 s

Courant Number mean: 0.18653 max: 0.845804
Interface Courant Number mean: 0.0381935 max: 0.76011
deltaT = 0.00277083
Time = 1

smoothSolver:  Solving for alpha.water, Initial residual = 0.00824552, Final residual = 2.60386e-09, No Iterations 4
Phase-1 volume fraction = 0.127486  Min(alpha.water) = -1.10311e-20  Max(alpha.water) = 1
MULES: Correcting alpha.water
MULES: Correcting alpha.water
Phase-1 volume fraction = 0.127486  Min(alpha.water) = -8.65621e-06  Max(alpha.water) = 1
DICPCG:  Solving for p_rgh, Initial residual = 0.0297681, Final residual = 0.000775557, No Iterations 2
time step continuity errors : sum local = 0.000685829, global = 7.4271e-09, cumulative = 0.00420906
DICPCG:  Solving for p_rgh, Initial residual = 0.00102198, Final residual = 4.06939e-05, No Iterations 11
time step continuity errors : sum local = 3.5548e-05, global = 1.81758e-06, cumulative = 0.00421088
DICPCG:  Solving for p_rgh, Initial residual = 0.000204196, Final residual = 8.04537e-08, No Iterations 52
time step continuity errors : sum local = 7.12732e-08, global = -2.16186e-10, cumulative = 0.00421088
ExecutionTime = 7.75 s  ClockTime = 7 s

End

Finalising parallel run
